
*** ChampSim Multicore Out-of-Order Simulator ***

Warmup Instructions: 200000000
Simulation Instructions: 500000000
Number of CPUs: 1
LLC sets: 2048
LLC ways: 16
Off-chip DRAM Size: 4096 MB Channels: 1 Width: 64-bit Data Rate: 3200 MT/s

CPU 0 runs /home/dengshuting/ChampSim/dpc3_traces/600.perlbench_s-210B.champsimtrace.xz
CPU 0 Bimodal branch predictor
Initialize SHIP state
Assign rand_sets[0]: 454  LLC: 2048
rand_sets[0]: 454
Assign rand_sets[1]: 1662  LLC: 2048
rand_sets[1]: 1662
Assign rand_sets[2]: 1921  LLC: 2048
rand_sets[2]: 1921
Assign rand_sets[3]: 1131  LLC: 2048
rand_sets[3]: 1131
Assign rand_sets[4]: 331  LLC: 2048
rand_sets[4]: 331
Assign rand_sets[5]: 1531  LLC: 2048
rand_sets[5]: 1531
Assign rand_sets[6]: 482  LLC: 2048
rand_sets[6]: 482
Assign rand_sets[7]: 1275  LLC: 2048
rand_sets[7]: 1275
Assign rand_sets[8]: 1876  LLC: 2048
rand_sets[8]: 1876
Assign rand_sets[9]: 2038  LLC: 2048
rand_sets[9]: 2038
Assign rand_sets[10]: 701  LLC: 2048
rand_sets[10]: 701
Assign rand_sets[11]: 479  LLC: 2048
rand_sets[11]: 479
Assign rand_sets[12]: 892  LLC: 2048
rand_sets[12]: 892
Assign rand_sets[13]: 1820  LLC: 2048
rand_sets[13]: 1820
Assign rand_sets[14]: 1505  LLC: 2048
rand_sets[14]: 1505
Assign rand_sets[15]: 1159  LLC: 2048
rand_sets[15]: 1159
Assign rand_sets[16]: 513  LLC: 2048
rand_sets[16]: 513
Assign rand_sets[17]: 703  LLC: 2048
rand_sets[17]: 703
Assign rand_sets[18]: 561  LLC: 2048
rand_sets[18]: 561
Assign rand_sets[19]: 990  LLC: 2048
rand_sets[19]: 990
Assign rand_sets[20]: 342  LLC: 2048
rand_sets[20]: 342
Assign rand_sets[21]: 882  LLC: 2048
rand_sets[21]: 882
Assign rand_sets[22]: 15  LLC: 2048
rand_sets[22]: 15
Assign rand_sets[23]: 71  LLC: 2048
rand_sets[23]: 71
Assign rand_sets[24]: 1127  LLC: 2048
rand_sets[24]: 1127
Assign rand_sets[25]: 1382  LLC: 2048
rand_sets[25]: 1382
Assign rand_sets[26]: 647  LLC: 2048
rand_sets[26]: 647
Assign rand_sets[27]: 857  LLC: 2048
rand_sets[27]: 857
Assign rand_sets[28]: 1450  LLC: 2048
rand_sets[28]: 1450
Assign rand_sets[29]: 1160  LLC: 2048
rand_sets[29]: 1160
Assign rand_sets[30]: 1852  LLC: 2048
rand_sets[30]: 1852
Assign rand_sets[31]: 1881  LLC: 2048
rand_sets[31]: 1881
Assign rand_sets[32]: 1770  LLC: 2048
rand_sets[32]: 1770
Assign rand_sets[33]: 1622  LLC: 2048
rand_sets[33]: 1622
Assign rand_sets[34]: 275  LLC: 2048
rand_sets[34]: 275
Assign rand_sets[35]: 635  LLC: 2048
rand_sets[35]: 635
Assign rand_sets[36]: 466  LLC: 2048
rand_sets[36]: 466
Assign rand_sets[37]: 1413  LLC: 2048
rand_sets[37]: 1413
Assign rand_sets[38]: 417  LLC: 2048
rand_sets[38]: 417
Assign rand_sets[39]: 472  LLC: 2048
rand_sets[39]: 472
Assign rand_sets[40]: 1340  LLC: 2048
rand_sets[40]: 1340
Assign rand_sets[41]: 852  LLC: 2048
rand_sets[41]: 852
Assign rand_sets[42]: 1365  LLC: 2048
rand_sets[42]: 1365
Assign rand_sets[43]: 47  LLC: 2048
rand_sets[43]: 47
Assign rand_sets[44]: 823  LLC: 2048
rand_sets[44]: 823
Assign rand_sets[45]: 686  LLC: 2048
rand_sets[45]: 686
Assign rand_sets[46]: 1637  LLC: 2048
rand_sets[46]: 1637
Assign rand_sets[47]: 1115  LLC: 2048
rand_sets[47]: 1115
Assign rand_sets[48]: 986  LLC: 2048
rand_sets[48]: 986
Assign rand_sets[49]: 258  LLC: 2048
rand_sets[49]: 258
Assign rand_sets[50]: 633  LLC: 2048
rand_sets[50]: 633
Assign rand_sets[51]: 920  LLC: 2048
rand_sets[51]: 920
Assign rand_sets[52]: 204  LLC: 2048
rand_sets[52]: 204
Assign rand_sets[53]: 227  LLC: 2048
rand_sets[53]: 227
Assign rand_sets[54]: 1818  LLC: 2048
rand_sets[54]: 1818
Assign rand_sets[55]: 886  LLC: 2048
rand_sets[55]: 886
Assign rand_sets[56]: 1422  LLC: 2048
rand_sets[56]: 1422
Assign rand_sets[57]: 607  LLC: 2048
rand_sets[57]: 607
Assign rand_sets[58]: 217  LLC: 2048
rand_sets[58]: 217
Assign rand_sets[59]: 1945  LLC: 2048
rand_sets[59]: 1945
Assign rand_sets[60]: 143  LLC: 2048
rand_sets[60]: 143
Assign rand_sets[61]: 1311  LLC: 2048
rand_sets[61]: 1311
Assign rand_sets[62]: 319  LLC: 2048
rand_sets[62]: 319
Assign rand_sets[63]: 1846  LLC: 2048
rand_sets[63]: 1846
Assign rand_sets[64]: 238  LLC: 2048
rand_sets[64]: 238
Assign rand_sets[65]: 67  LLC: 2048
rand_sets[65]: 67
Assign rand_sets[66]: 1912  LLC: 2048
rand_sets[66]: 1912
Assign rand_sets[67]: 1613  LLC: 2048
rand_sets[67]: 1613
Assign rand_sets[68]: 1293  LLC: 2048
rand_sets[68]: 1293
Assign rand_sets[69]: 1018  LLC: 2048
rand_sets[69]: 1018
Assign rand_sets[70]: 1982  LLC: 2048
rand_sets[70]: 1982
Assign rand_sets[71]: 1702  LLC: 2048
rand_sets[71]: 1702
Assign rand_sets[72]: 1498  LLC: 2048
rand_sets[72]: 1498
Assign rand_sets[73]: 228  LLC: 2048
rand_sets[73]: 228
Assign rand_sets[74]: 1414  LLC: 2048
rand_sets[74]: 1414
Assign rand_sets[75]: 1166  LLC: 2048
rand_sets[75]: 1166
Assign rand_sets[76]: 732  LLC: 2048
rand_sets[76]: 732
Assign rand_sets[77]: 297  LLC: 2048
rand_sets[77]: 297
Assign rand_sets[78]: 1133  LLC: 2048
rand_sets[78]: 1133
Assign rand_sets[79]: 846  LLC: 2048
rand_sets[79]: 846
Assign rand_sets[80]: 767  LLC: 2048
rand_sets[80]: 767
Assign rand_sets[81]: 1878  LLC: 2048
rand_sets[81]: 1878
Assign rand_sets[82]: 993  LLC: 2048
rand_sets[82]: 993
Assign rand_sets[83]: 1392  LLC: 2048
rand_sets[83]: 1392
Assign rand_sets[84]: 1568  LLC: 2048
rand_sets[84]: 1568
Assign rand_sets[85]: 1787  LLC: 2048
rand_sets[85]: 1787
Assign rand_sets[86]: 399  LLC: 2048
rand_sets[86]: 399
Assign rand_sets[87]: 1201  LLC: 2048
rand_sets[87]: 1201
Assign rand_sets[88]: 856  LLC: 2048
rand_sets[88]: 856
Assign rand_sets[89]: 773  LLC: 2048
rand_sets[89]: 773
Assign rand_sets[90]: 1680  LLC: 2048
rand_sets[90]: 1680
Assign rand_sets[91]: 1477  LLC: 2048
rand_sets[91]: 1477
Assign rand_sets[92]: 9  LLC: 2048
rand_sets[92]: 9
Assign rand_sets[93]: 1500  LLC: 2048
rand_sets[93]: 1500
Assign rand_sets[94]: 851  LLC: 2048
rand_sets[94]: 851
Assign rand_sets[95]: 973  LLC: 2048
rand_sets[95]: 973
Assign rand_sets[96]: 938  LLC: 2048
rand_sets[96]: 938
Assign rand_sets[97]: 1851  LLC: 2048
rand_sets[97]: 1851
Assign rand_sets[98]: 1608  LLC: 2048
rand_sets[98]: 1608
Assign rand_sets[99]: 1945  LLC: 2048
Assign rand_sets[99]: 1106  LLC: 2048
rand_sets[99]: 1106
Assign rand_sets[100]: 979  LLC: 2048
rand_sets[100]: 979
Assign rand_sets[101]: 338  LLC: 2048
rand_sets[101]: 338
Assign rand_sets[102]: 1693  LLC: 2048
rand_sets[102]: 1693
Assign rand_sets[103]: 6  LLC: 2048
rand_sets[103]: 6
Assign rand_sets[104]: 671  LLC: 2048
rand_sets[104]: 671
Assign rand_sets[105]: 490  LLC: 2048
rand_sets[105]: 490
Assign rand_sets[106]: 1461  LLC: 2048
rand_sets[106]: 1461
Assign rand_sets[107]: 1730  LLC: 2048
rand_sets[107]: 1730
Assign rand_sets[108]: 1030  LLC: 2048
rand_sets[108]: 1030
Assign rand_sets[109]: 19  LLC: 2048
rand_sets[109]: 19
Assign rand_sets[110]: 920  LLC: 2048
Assign rand_sets[110]: 329  LLC: 2048
rand_sets[110]: 329
Assign rand_sets[111]: 1714  LLC: 2048
rand_sets[111]: 1714
Assign rand_sets[112]: 1  LLC: 2048
rand_sets[112]: 1
Assign rand_sets[113]: 1822  LLC: 2048
rand_sets[113]: 1822
Assign rand_sets[114]: 172  LLC: 2048
rand_sets[114]: 172
Assign rand_sets[115]: 1586  LLC: 2048
rand_sets[115]: 1586
Assign rand_sets[116]: 648  LLC: 2048
rand_sets[116]: 648
Assign rand_sets[117]: 1329  LLC: 2048
rand_sets[117]: 1329
Assign rand_sets[118]: 668  LLC: 2048
rand_sets[118]: 668
Assign rand_sets[119]: 1874  LLC: 2048
rand_sets[119]: 1874
Assign rand_sets[120]: 70  LLC: 2048
rand_sets[120]: 70
Assign rand_sets[121]: 661  LLC: 2048
rand_sets[121]: 661
Assign rand_sets[122]: 1649  LLC: 2048
rand_sets[122]: 1649
Assign rand_sets[123]: 1590  LLC: 2048
rand_sets[123]: 1590
Assign rand_sets[124]: 911  LLC: 2048
rand_sets[124]: 911
Assign rand_sets[125]: 1367  LLC: 2048
rand_sets[125]: 1367
Assign rand_sets[126]: 1782  LLC: 2048
rand_sets[126]: 1782
Assign rand_sets[127]: 569  LLC: 2048
rand_sets[127]: 569
Assign rand_sets[128]: 1309  LLC: 2048
rand_sets[128]: 1309
Assign rand_sets[129]: 534  LLC: 2048
rand_sets[129]: 534
Assign rand_sets[130]: 1274  LLC: 2048
rand_sets[130]: 1274
Assign rand_sets[131]: 904  LLC: 2048
rand_sets[131]: 904
Assign rand_sets[132]: 1908  LLC: 2048
rand_sets[132]: 1908
Assign rand_sets[133]: 245  LLC: 2048
rand_sets[133]: 245
Assign rand_sets[134]: 1688  LLC: 2048
rand_sets[134]: 1688
Assign rand_sets[135]: 1660  LLC: 2048
rand_sets[135]: 1660
Assign rand_sets[136]: 1303  LLC: 2048
rand_sets[136]: 1303
Assign rand_sets[137]: 1628  LLC: 2048
rand_sets[137]: 1628
Assign rand_sets[138]: 1857  LLC: 2048
rand_sets[138]: 1857
Assign rand_sets[139]: 187  LLC: 2048
rand_sets[139]: 187
Assign rand_sets[140]: 1389  LLC: 2048
rand_sets[140]: 1389
Assign rand_sets[141]: 881  LLC: 2048
rand_sets[141]: 881
Assign rand_sets[142]: 1166  LLC: 2048
Assign rand_sets[142]: 1039  LLC: 2048
rand_sets[142]: 1039
Assign rand_sets[143]: 1136  LLC: 2048
rand_sets[143]: 1136
Assign rand_sets[144]: 601  LLC: 2048
rand_sets[144]: 601
Assign rand_sets[145]: 967  LLC: 2048
rand_sets[145]: 967
Assign rand_sets[146]: 769  LLC: 2048
rand_sets[146]: 769
Assign rand_sets[147]: 283  LLC: 2048
rand_sets[147]: 283
Assign rand_sets[148]: 559  LLC: 2048
rand_sets[148]: 559
Assign rand_sets[149]: 1075  LLC: 2048
rand_sets[149]: 1075
Assign rand_sets[150]: 829  LLC: 2048
rand_sets[150]: 829
Assign rand_sets[151]: 1681  LLC: 2048
rand_sets[151]: 1681
Assign rand_sets[152]: 1728  LLC: 2048
rand_sets[152]: 1728
Assign rand_sets[153]: 541  LLC: 2048
rand_sets[153]: 541
Assign rand_sets[154]: 421  LLC: 2048
rand_sets[154]: 421
Assign rand_sets[155]: 1037  LLC: 2048
rand_sets[155]: 1037
Assign rand_sets[156]: 13  LLC: 2048
rand_sets[156]: 13
Assign rand_sets[157]: 1707  LLC: 2048
rand_sets[157]: 1707
Assign rand_sets[158]: 1075  LLC: 2048
Assign rand_sets[158]: 1933  LLC: 2048
rand_sets[158]: 1933
Assign rand_sets[159]: 1406  LLC: 2048
rand_sets[159]: 1406
Assign rand_sets[160]: 94  LLC: 2048
rand_sets[160]: 94
Assign rand_sets[161]: 1423  LLC: 2048
rand_sets[161]: 1423
Assign rand_sets[162]: 1854  LLC: 2048
rand_sets[162]: 1854
Assign rand_sets[163]: 230  LLC: 2048
rand_sets[163]: 230
Assign rand_sets[164]: 104  LLC: 2048
rand_sets[164]: 104
Assign rand_sets[165]: 1652  LLC: 2048
rand_sets[165]: 1652
Assign rand_sets[166]: 1446  LLC: 2048
rand_sets[166]: 1446
Assign rand_sets[167]: 1338  LLC: 2048
rand_sets[167]: 1338
Assign rand_sets[168]: 177  LLC: 2048
rand_sets[168]: 177
Assign rand_sets[169]: 195  LLC: 2048
rand_sets[169]: 195
Assign rand_sets[170]: 1171  LLC: 2048
rand_sets[170]: 1171
Assign rand_sets[171]: 1297  LLC: 2048
rand_sets[171]: 1297
Assign rand_sets[172]: 1704  LLC: 2048
rand_sets[172]: 1704
Assign rand_sets[173]: 100  LLC: 2048
rand_sets[173]: 100
Assign rand_sets[174]: 711  LLC: 2048
rand_sets[174]: 711
Assign rand_sets[175]: 1243  LLC: 2048
rand_sets[175]: 1243
Assign rand_sets[176]: 1738  LLC: 2048
rand_sets[176]: 1738
Assign rand_sets[177]: 1504  LLC: 2048
rand_sets[177]: 1504
Assign rand_sets[178]: 96  LLC: 2048
rand_sets[178]: 96
Assign rand_sets[179]: 1249  LLC: 2048
rand_sets[179]: 1249
Assign rand_sets[180]: 1267  LLC: 2048
rand_sets[180]: 1267
Assign rand_sets[181]: 1727  LLC: 2048
rand_sets[181]: 1727
Assign rand_sets[182]: 1545  LLC: 2048
rand_sets[182]: 1545
Assign rand_sets[183]: 1792  LLC: 2048
rand_sets[183]: 1792
Assign rand_sets[184]: 1383  LLC: 2048
rand_sets[184]: 1383
Assign rand_sets[185]: 1954  LLC: 2048
rand_sets[185]: 1954
Assign rand_sets[186]: 739  LLC: 2048
rand_sets[186]: 739
Assign rand_sets[187]: 1061  LLC: 2048
rand_sets[187]: 1061
Assign rand_sets[188]: 672  LLC: 2048
rand_sets[188]: 672
Assign rand_sets[189]: 1057  LLC: 2048
rand_sets[189]: 1057
Assign rand_sets[190]: 1329  LLC: 2048
Assign rand_sets[190]: 1415  LLC: 2048
rand_sets[190]: 1415
Assign rand_sets[191]: 981  LLC: 2048
rand_sets[191]: 981
Assign rand_sets[192]: 98  LLC: 2048
rand_sets[192]: 98
Assign rand_sets[193]: 453  LLC: 2048
rand_sets[193]: 453
Assign rand_sets[194]: 1448  LLC: 2048
rand_sets[194]: 1448
Assign rand_sets[195]: 79  LLC: 2048
rand_sets[195]: 79
Assign rand_sets[196]: 126  LLC: 2048
rand_sets[196]: 126
Assign rand_sets[197]: 1582  LLC: 2048
rand_sets[197]: 1582
Assign rand_sets[198]: 1289  LLC: 2048
rand_sets[198]: 1289
Assign rand_sets[199]: 875  LLC: 2048
rand_sets[199]: 875
Assign rand_sets[200]: 404  LLC: 2048
rand_sets[200]: 404
Assign rand_sets[201]: 415  LLC: 2048
rand_sets[201]: 415
Assign rand_sets[202]: 1712  LLC: 2048
rand_sets[202]: 1712
Assign rand_sets[203]: 1389  LLC: 2048
Assign rand_sets[203]: 169  LLC: 2048
rand_sets[203]: 169
Assign rand_sets[204]: 158  LLC: 2048
rand_sets[204]: 158
Assign rand_sets[205]: 90  LLC: 2048
rand_sets[205]: 90
Assign rand_sets[206]: 1291  LLC: 2048
rand_sets[206]: 1291
Assign rand_sets[207]: 838  LLC: 2048
rand_sets[207]: 838
Assign rand_sets[208]: 1904  LLC: 2048
rand_sets[208]: 1904
Assign rand_sets[209]: 640  LLC: 2048
rand_sets[209]: 640
Assign rand_sets[210]: 1462  LLC: 2048
rand_sets[210]: 1462
Assign rand_sets[211]: 1487  LLC: 2048
rand_sets[211]: 1487
Assign rand_sets[212]: 1863  LLC: 2048
rand_sets[212]: 1863
Assign rand_sets[213]: 1036  LLC: 2048
rand_sets[213]: 1036
Assign rand_sets[214]: 1702  LLC: 2048
Assign rand_sets[214]: 933  LLC: 2048
rand_sets[214]: 933
Assign rand_sets[215]: 554  LLC: 2048
rand_sets[215]: 554
Assign rand_sets[216]: 1496  LLC: 2048
rand_sets[216]: 1496
Assign rand_sets[217]: 1708  LLC: 2048
rand_sets[217]: 1708
Assign rand_sets[218]: 1275  LLC: 2048
Assign rand_sets[218]: 416  LLC: 2048
rand_sets[218]: 416
Assign rand_sets[219]: 491  LLC: 2048
rand_sets[219]: 491
Assign rand_sets[220]: 183  LLC: 2048
rand_sets[220]: 183
Assign rand_sets[221]: 1657  LLC: 2048
rand_sets[221]: 1657
Assign rand_sets[222]: 1060  LLC: 2048
rand_sets[222]: 1060
Assign rand_sets[223]: 626  LLC: 2048
rand_sets[223]: 626
Assign rand_sets[224]: 1315  LLC: 2048
rand_sets[224]: 1315
Assign rand_sets[225]: 1682  LLC: 2048
rand_sets[225]: 1682
Assign rand_sets[226]: 1352  LLC: 2048
rand_sets[226]: 1352
Assign rand_sets[227]: 1152  LLC: 2048
rand_sets[227]: 1152
Assign rand_sets[228]: 965  LLC: 2048
rand_sets[228]: 965
Assign rand_sets[229]: 1190  LLC: 2048
rand_sets[229]: 1190
Assign rand_sets[230]: 1191  LLC: 2048
rand_sets[230]: 1191
Assign rand_sets[231]: 645  LLC: 2048
rand_sets[231]: 645
Assign rand_sets[232]: 695  LLC: 2048
rand_sets[232]: 695
Assign rand_sets[233]: 1495  LLC: 2048
rand_sets[233]: 1495
Assign rand_sets[234]: 1932  LLC: 2048
rand_sets[234]: 1932
Assign rand_sets[235]: 656  LLC: 2048
rand_sets[235]: 656
Assign rand_sets[236]: 1508  LLC: 2048
rand_sets[236]: 1508
Assign rand_sets[237]: 939  LLC: 2048
rand_sets[237]: 939
Assign rand_sets[238]: 355  LLC: 2048
rand_sets[238]: 355
Assign rand_sets[239]: 1092  LLC: 2048
rand_sets[239]: 1092
Assign rand_sets[240]: 850  LLC: 2048
rand_sets[240]: 850
Assign rand_sets[241]: 102  LLC: 2048
rand_sets[241]: 102
Assign rand_sets[242]: 1763  LLC: 2048
rand_sets[242]: 1763
Assign rand_sets[243]: 668  LLC: 2048
Assign rand_sets[243]: 51  LLC: 2048
rand_sets[243]: 51
Assign rand_sets[244]: 1317  LLC: 2048
rand_sets[244]: 1317
Assign rand_sets[245]: 2041  LLC: 2048
rand_sets[245]: 2041
Assign rand_sets[246]: 1374  LLC: 2048
rand_sets[246]: 1374
Assign rand_sets[247]: 682  LLC: 2048
rand_sets[247]: 682
Assign rand_sets[248]: 1466  LLC: 2048
rand_sets[248]: 1466
Assign rand_sets[249]: 1139  LLC: 2048
rand_sets[249]: 1139
Assign rand_sets[250]: 1632  LLC: 2048
rand_sets[250]: 1632
Assign rand_sets[251]: 1117  LLC: 2048
rand_sets[251]: 1117
Assign rand_sets[252]: 1611  LLC: 2048
rand_sets[252]: 1611
Assign rand_sets[253]: 1905  LLC: 2048
rand_sets[253]: 1905
Assign rand_sets[254]: 1662  LLC: 2048
Assign rand_sets[254]: 446  LLC: 2048
rand_sets[254]: 446
Assign rand_sets[255]: 1705  LLC: 2048
rand_sets[255]: 1705
Heartbeat CPU 0 instructions: 10000000 cycles: 3913800 heartbeat IPC: 2.55506 cumulative IPC: 2.55506 (Simulation time: 0 hr 0 min 20 sec) 
Heartbeat CPU 0 instructions: 20000000 cycles: 7798715 heartbeat IPC: 2.57406 cumulative IPC: 2.56453 (Simulation time: 0 hr 0 min 40 sec) 
Heartbeat CPU 0 instructions: 30000002 cycles: 11686981 heartbeat IPC: 2.57184 cumulative IPC: 2.56696 (Simulation time: 0 hr 1 min 0 sec) 
Heartbeat CPU 0 instructions: 40000000 cycles: 15533930 heartbeat IPC: 2.59946 cumulative IPC: 2.57501 (Simulation time: 0 hr 1 min 21 sec) 
Heartbeat CPU 0 instructions: 50000003 cycles: 19429507 heartbeat IPC: 2.56701 cumulative IPC: 2.57341 (Simulation time: 0 hr 1 min 41 sec) 
Heartbeat CPU 0 instructions: 60000003 cycles: 23343166 heartbeat IPC: 2.55515 cumulative IPC: 2.57035 (Simulation time: 0 hr 2 min 1 sec) 
Heartbeat CPU 0 instructions: 70000003 cycles: 26923598 heartbeat IPC: 2.79296 cumulative IPC: 2.59995 (Simulation time: 0 hr 2 min 22 sec) 
Heartbeat CPU 0 instructions: 80000001 cycles: 30549656 heartbeat IPC: 2.75782 cumulative IPC: 2.61869 (Simulation time: 0 hr 2 min 42 sec) 
Heartbeat CPU 0 instructions: 90000000 cycles: 34402111 heartbeat IPC: 2.59575 cumulative IPC: 2.61612 (Simulation time: 0 hr 3 min 2 sec) 
Heartbeat CPU 0 instructions: 100000000 cycles: 38346295 heartbeat IPC: 2.53538 cumulative IPC: 2.60781 (Simulation time: 0 hr 3 min 23 sec) 
Heartbeat CPU 0 instructions: 110000000 cycles: 42113737 heartbeat IPC: 2.65432 cumulative IPC: 2.61197 (Simulation time: 0 hr 3 min 43 sec) 
Heartbeat CPU 0 instructions: 120000003 cycles: 45926423 heartbeat IPC: 2.62282 cumulative IPC: 2.61287 (Simulation time: 0 hr 4 min 4 sec) 
Heartbeat CPU 0 instructions: 130000000 cycles: 49922316 heartbeat IPC: 2.50257 cumulative IPC: 2.60405 (Simulation time: 0 hr 4 min 24 sec) 
Heartbeat CPU 0 instructions: 140000003 cycles: 53883681 heartbeat IPC: 2.52438 cumulative IPC: 2.59819 (Simulation time: 0 hr 4 min 44 sec) 
Heartbeat CPU 0 instructions: 150000000 cycles: 57684185 heartbeat IPC: 2.63123 cumulative IPC: 2.60037 (Simulation time: 0 hr 5 min 5 sec) 
Heartbeat CPU 0 instructions: 160000000 cycles: 61377898 heartbeat IPC: 2.7073 cumulative IPC: 2.6068 (Simulation time: 0 hr 5 min 25 sec) 
Heartbeat CPU 0 instructions: 170000002 cycles: 65270912 heartbeat IPC: 2.5687 cumulative IPC: 2.60453 (Simulation time: 0 hr 5 min 45 sec) 
Heartbeat CPU 0 instructions: 180000003 cycles: 69030150 heartbeat IPC: 2.66011 cumulative IPC: 2.60756 (Simulation time: 0 hr 6 min 6 sec) 
Heartbeat CPU 0 instructions: 190000000 cycles: 72847608 heartbeat IPC: 2.61954 cumulative IPC: 2.60818 (Simulation time: 0 hr 6 min 27 sec) 
Heartbeat CPU 0 instructions: 200000001 cycles: 76908984 heartbeat IPC: 2.46222 cumulative IPC: 2.60048 (Simulation time: 0 hr 6 min 47 sec) 

Warmup complete CPU 0 instructions: 200000001 cycles: 76908984 (Simulation time: 0 hr 6 min 47 sec) 

Heartbeat CPU 0 instructions: 210000001 cycles: 84835267 heartbeat IPC: 1.26163 cumulative IPC: 1.26163 (Simulation time: 0 hr 7 min 4 sec) 
Heartbeat CPU 0 instructions: 220000000 cycles: 92719928 heartbeat IPC: 1.26829 cumulative IPC: 1.26495 (Simulation time: 0 hr 7 min 21 sec) 
Heartbeat CPU 0 instructions: 230000000 cycles: 100584766 heartbeat IPC: 1.27148 cumulative IPC: 1.26712 (Simulation time: 0 hr 7 min 39 sec) 
Heartbeat CPU 0 instructions: 240000000 cycles: 108353752 heartbeat IPC: 1.28717 cumulative IPC: 1.27207 (Simulation time: 0 hr 7 min 56 sec) 
Heartbeat CPU 0 instructions: 250000002 cycles: 114732302 heartbeat IPC: 1.56775 cumulative IPC: 1.32194 (Simulation time: 0 hr 8 min 12 sec) 
Heartbeat CPU 0 instructions: 260000002 cycles: 122426027 heartbeat IPC: 1.29976 cumulative IPC: 1.31819 (Simulation time: 0 hr 8 min 29 sec) 
Heartbeat CPU 0 instructions: 270000001 cycles: 129748224 heartbeat IPC: 1.36571 cumulative IPC: 1.32477 (Simulation time: 0 hr 8 min 47 sec) 
Heartbeat CPU 0 instructions: 280000002 cycles: 136673599 heartbeat IPC: 1.44397 cumulative IPC: 1.33858 (Simulation time: 0 hr 9 min 5 sec) 
Heartbeat CPU 0 instructions: 290000001 cycles: 144415516 heartbeat IPC: 1.29167 cumulative IPC: 1.3332 (Simulation time: 0 hr 9 min 22 sec) 
Heartbeat CPU 0 instructions: 300000000 cycles: 152510116 heartbeat IPC: 1.23539 cumulative IPC: 1.32273 (Simulation time: 0 hr 9 min 39 sec) 
Heartbeat CPU 0 instructions: 310000003 cycles: 160413209 heartbeat IPC: 1.26533 cumulative IPC: 1.3173 (Simulation time: 0 hr 9 min 56 sec) 
Heartbeat CPU 0 instructions: 320000000 cycles: 167887614 heartbeat IPC: 1.3379 cumulative IPC: 1.31899 (Simulation time: 0 hr 10 min 13 sec) 
Heartbeat CPU 0 instructions: 330000000 cycles: 174520927 heartbeat IPC: 1.50754 cumulative IPC: 1.3318 (Simulation time: 0 hr 10 min 29 sec) 
Heartbeat CPU 0 instructions: 340000002 cycles: 181478852 heartbeat IPC: 1.43721 cumulative IPC: 1.33882 (Simulation time: 0 hr 10 min 47 sec) 
Heartbeat CPU 0 instructions: 350000000 cycles: 188514508 heartbeat IPC: 1.42133 cumulative IPC: 1.34402 (Simulation time: 0 hr 11 min 4 sec) 
Heartbeat CPU 0 instructions: 360000002 cycles: 196323501 heartbeat IPC: 1.28058 cumulative IPC: 1.33987 (Simulation time: 0 hr 11 min 21 sec) 
Heartbeat CPU 0 instructions: 370000003 cycles: 203435629 heartbeat IPC: 1.40605 cumulative IPC: 1.34359 (Simulation time: 0 hr 11 min 38 sec) 
Heartbeat CPU 0 instructions: 380000003 cycles: 210888717 heartbeat IPC: 1.34173 cumulative IPC: 1.34349 (Simulation time: 0 hr 11 min 56 sec) 
Heartbeat CPU 0 instructions: 390000001 cycles: 218791764 heartbeat IPC: 1.26533 cumulative IPC: 1.33913 (Simulation time: 0 hr 12 min 13 sec) 
Heartbeat CPU 0 instructions: 400000001 cycles: 226629385 heartbeat IPC: 1.2759 cumulative IPC: 1.33582 (Simulation time: 0 hr 12 min 30 sec) 
Heartbeat CPU 0 instructions: 410000000 cycles: 233914117 heartbeat IPC: 1.37273 cumulative IPC: 1.33754 (Simulation time: 0 hr 12 min 47 sec) 
Heartbeat CPU 0 instructions: 420000001 cycles: 241104372 heartbeat IPC: 1.39077 cumulative IPC: 1.33987 (Simulation time: 0 hr 13 min 4 sec) 
Heartbeat CPU 0 instructions: 430000000 cycles: 247749026 heartbeat IPC: 1.50497 cumulative IPC: 1.34629 (Simulation time: 0 hr 13 min 22 sec) 
Heartbeat CPU 0 instructions: 440000000 cycles: 255415377 heartbeat IPC: 1.3044 cumulative IPC: 1.34449 (Simulation time: 0 hr 13 min 39 sec) 
Heartbeat CPU 0 instructions: 450000003 cycles: 262065215 heartbeat IPC: 1.5038 cumulative IPC: 1.35021 (Simulation time: 0 hr 13 min 57 sec) 
Heartbeat CPU 0 instructions: 460000002 cycles: 269713017 heartbeat IPC: 1.30757 cumulative IPC: 1.34852 (Simulation time: 0 hr 14 min 15 sec) 
Heartbeat CPU 0 instructions: 470000003 cycles: 280703786 heartbeat IPC: 0.909855 cumulative IPC: 1.32486 (Simulation time: 0 hr 14 min 33 sec) 
Heartbeat CPU 0 instructions: 480000003 cycles: 291493036 heartbeat IPC: 0.926848 cumulative IPC: 1.30485 (Simulation time: 0 hr 14 min 50 sec) 
Heartbeat CPU 0 instructions: 490000001 cycles: 299017326 heartbeat IPC: 1.32903 cumulative IPC: 1.30567 (Simulation time: 0 hr 15 min 6 sec) 
Heartbeat CPU 0 instructions: 500000001 cycles: 307840956 heartbeat IPC: 1.13332 cumulative IPC: 1.29908 (Simulation time: 0 hr 15 min 22 sec) 
Heartbeat CPU 0 instructions: 510000002 cycles: 319002528 heartbeat IPC: 0.895931 cumulative IPC: 1.2805 (Simulation time: 0 hr 15 min 38 sec) 
Heartbeat CPU 0 instructions: 520000003 cycles: 335553691 heartbeat IPC: 0.604187 cumulative IPC: 1.23722 (Simulation time: 0 hr 15 min 55 sec) 
Heartbeat CPU 0 instructions: 530000003 cycles: 350839905 heartbeat IPC: 0.654184 cumulative IPC: 1.20468 (Simulation time: 0 hr 16 min 11 sec) 
Heartbeat CPU 0 instructions: 540000002 cycles: 364477970 heartbeat IPC: 0.733242 cumulative IPC: 1.18233 (Simulation time: 0 hr 16 min 28 sec) 
Heartbeat CPU 0 instructions: 550000000 cycles: 380823603 heartbeat IPC: 0.611784 cumulative IPC: 1.15164 (Simulation time: 0 hr 16 min 46 sec) 
Heartbeat CPU 0 instructions: 560000001 cycles: 388859147 heartbeat IPC: 1.24447 cumulative IPC: 1.15403 (Simulation time: 0 hr 17 min 3 sec) 
Heartbeat CPU 0 instructions: 570000000 cycles: 396577851 heartbeat IPC: 1.29555 cumulative IPC: 1.15745 (Simulation time: 0 hr 17 min 21 sec) 
Heartbeat CPU 0 instructions: 580000000 cycles: 405008708 heartbeat IPC: 1.18612 cumulative IPC: 1.15818 (Simulation time: 0 hr 17 min 38 sec) 
Heartbeat CPU 0 instructions: 590000000 cycles: 413344600 heartbeat IPC: 1.19963 cumulative IPC: 1.15921 (Simulation time: 0 hr 17 min 56 sec) 
Heartbeat CPU 0 instructions: 600000001 cycles: 425611318 heartbeat IPC: 0.815214 cumulative IPC: 1.14711 (Simulation time: 0 hr 18 min 13 sec) 
Heartbeat CPU 0 instructions: 610000001 cycles: 440903032 heartbeat IPC: 0.653949 cumulative IPC: 1.12639 (Simulation time: 0 hr 18 min 31 sec) 
Heartbeat CPU 0 instructions: 620000002 cycles: 456849686 heartbeat IPC: 0.627091 cumulative IPC: 1.10544 (Simulation time: 0 hr 18 min 48 sec) 
Heartbeat CPU 0 instructions: 630000003 cycles: 468732320 heartbeat IPC: 0.841564 cumulative IPC: 1.09743 (Simulation time: 0 hr 19 min 7 sec) 
Heartbeat CPU 0 instructions: 640000002 cycles: 481394375 heartbeat IPC: 0.789761 cumulative IPC: 1.0878 (Simulation time: 0 hr 19 min 25 sec) 
Heartbeat CPU 0 instructions: 650000003 cycles: 497138606 heartbeat IPC: 0.635153 cumulative IPC: 1.07084 (Simulation time: 0 hr 19 min 43 sec) 
Heartbeat CPU 0 instructions: 660000000 cycles: 511827860 heartbeat IPC: 0.68077 cumulative IPC: 1.05767 (Simulation time: 0 hr 19 min 59 sec) 
Heartbeat CPU 0 instructions: 670000001 cycles: 522078156 heartbeat IPC: 0.975582 cumulative IPC: 1.05578 (Simulation time: 0 hr 20 min 18 sec) 
Heartbeat CPU 0 instructions: 680000000 cycles: 538449358 heartbeat IPC: 0.610829 cumulative IPC: 1.04 (Simulation time: 0 hr 20 min 35 sec) 
Heartbeat CPU 0 instructions: 690000002 cycles: 553811129 heartbeat IPC: 0.650967 cumulative IPC: 1.02746 (Simulation time: 0 hr 20 min 52 sec) 
Heartbeat CPU 0 instructions: 700000002 cycles: 561377517 heartbeat IPC: 1.32163 cumulative IPC: 1.03206 (Simulation time: 0 hr 21 min 10 sec) 
Finished CPU 0 instructions: 500000001 cycles: 484468533 cumulative IPC: 1.03206 (Simulation time: 0 hr 21 min 10 sec) 

ChampSim completed all CPUs

Region of Interest Statistics

CPU 0 cumulative IPC: 1.03206 instructions: 500000001 cycles: 484468533
L1D TOTAL     ACCESS:  182963475  HIT:  181929805  MISS:    1033670
L1D LOAD      ACCESS:   83828455  HIT:   82874859  MISS:     953596
L1D RFO       ACCESS:   99135020  HIT:   99054946  MISS:      80074
L1D PREFETCH  ACCESS:          0  HIT:          0  MISS:          0
L1D WRITEBACK ACCESS:          0  HIT:          0  MISS:          0
L1D PREFETCH  REQUESTED:          0  ISSUED:          0  USEFUL:          0  USELESS:          0
L1D AVERAGE MISS LATENCY: 60.2573 cycles
L1I TOTAL     ACCESS:   81580575  HIT:   79942772  MISS:    1637803
L1I LOAD      ACCESS:   81580575  HIT:   79942772  MISS:    1637803
L1I RFO       ACCESS:          0  HIT:          0  MISS:          0
L1I PREFETCH  ACCESS:          0  HIT:          0  MISS:          0
L1I WRITEBACK ACCESS:          0  HIT:          0  MISS:          0
L1I PREFETCH  REQUESTED:          0  ISSUED:          0  USEFUL:          0  USELESS:          0
L1I AVERAGE MISS LATENCY: 15.6892 cycles
L2C TOTAL     ACCESS:    2934674  HIT:    2522075  MISS:     412599
L2C LOAD      ACCESS:    2591340  HIT:    2208165  MISS:     383175
L2C RFO       ACCESS:      80069  HIT:      51773  MISS:      28296
L2C PREFETCH  ACCESS:          0  HIT:          0  MISS:          0
L2C WRITEBACK ACCESS:     263265  HIT:     262137  MISS:       1128
L2C PREFETCH  REQUESTED:          0  ISSUED:          0  USEFUL:          0  USELESS:          0
L2C AVERAGE MISS LATENCY: 118.871 cycles
LLC TOTAL     ACCESS:     502417  HIT:     230040  MISS:     272377
LLC LOAD      ACCESS:     383175  HIT:     139836  MISS:     243339
LLC RFO       ACCESS:      28296  HIT:      13593  MISS:      14703
LLC PREFETCH  ACCESS:          0  HIT:          0  MISS:          0
LLC WRITEBACK ACCESS:      90946  HIT:      76611  MISS:      14335
LLC PREFETCH  REQUESTED:          0  ISSUED:          0  USEFUL:          0  USELESS:          0
LLC AVERAGE MISS LATENCY: 134.231 cycles
Major fault: 0 Minor fault: 6009

DRAM Statistics
 CHANNEL 0
 RQ ROW_BUFFER_HIT:      80635  ROW_BUFFER_MISS:     177406
 DBUS_CONGESTED:      17120
 WQ ROW_BUFFER_HIT:       8059  ROW_BUFFER_MISS:      22370  FULL:          0

 AVG_CONGESTED_CYCLE: 6

CPU 0 Branch Prediction Accuracy: 96.7% MPKI: 5.21788 Average ROB Occupancy at Mispredict: 71.4036

Branch types
NOT_BRANCH: 420941044 84.1882%
BRANCH_DIRECT_JUMP: 10331438 2.06629%
BRANCH_INDIRECT: 3278964 0.655793%
BRANCH_CONDITIONAL: 56511086 11.3022%
BRANCH_DIRECT_CALL: 3743566 0.748713%
BRANCH_INDIRECT_CALL: 725077 0.145015%
BRANCH_RETURN: 4468643 0.893729%
BRANCH_OTHER: 0 0%

