
*** ChampSim Multicore Out-of-Order Simulator ***

Warmup Instructions: 200000000
Simulation Instructions: 500000000
Number of CPUs: 1
LLC sets: 2048
LLC ways: 16
Off-chip DRAM Size: 4096 MB Channels: 1 Width: 64-bit Data Rate: 3200 MT/s

CPU 0 runs /home/dengshuting/ChampSim/dpc3_traces/602.gcc_s-734B.champsimtrace.xz
CPU 0 Bimodal branch predictor
CPU 0 L1I next line prefetcher
CPU 0 L1D next line prefetcher
CPU 0 L2C next line prefetcher
Initialize SHIP state
Assign rand_sets[0]: 454  LLC: 2048
rand_sets[0]: 454
Assign rand_sets[1]: 1662  LLC: 2048
rand_sets[1]: 1662
Assign rand_sets[2]: 1921  LLC: 2048
rand_sets[2]: 1921
Assign rand_sets[3]: 1131  LLC: 2048
rand_sets[3]: 1131
Assign rand_sets[4]: 331  LLC: 2048
rand_sets[4]: 331
Assign rand_sets[5]: 1531  LLC: 2048
rand_sets[5]: 1531
Assign rand_sets[6]: 482  LLC: 2048
rand_sets[6]: 482
Assign rand_sets[7]: 1275  LLC: 2048
rand_sets[7]: 1275
Assign rand_sets[8]: 1876  LLC: 2048
rand_sets[8]: 1876
Assign rand_sets[9]: 2038  LLC: 2048
rand_sets[9]: 2038
Assign rand_sets[10]: 701  LLC: 2048
rand_sets[10]: 701
Assign rand_sets[11]: 479  LLC: 2048
rand_sets[11]: 479
Assign rand_sets[12]: 892  LLC: 2048
rand_sets[12]: 892
Assign rand_sets[13]: 1820  LLC: 2048
rand_sets[13]: 1820
Assign rand_sets[14]: 1505  LLC: 2048
rand_sets[14]: 1505
Assign rand_sets[15]: 1159  LLC: 2048
rand_sets[15]: 1159
Assign rand_sets[16]: 513  LLC: 2048
rand_sets[16]: 513
Assign rand_sets[17]: 703  LLC: 2048
rand_sets[17]: 703
Assign rand_sets[18]: 561  LLC: 2048
rand_sets[18]: 561
Assign rand_sets[19]: 990  LLC: 2048
rand_sets[19]: 990
Assign rand_sets[20]: 342  LLC: 2048
rand_sets[20]: 342
Assign rand_sets[21]: 882  LLC: 2048
rand_sets[21]: 882
Assign rand_sets[22]: 15  LLC: 2048
rand_sets[22]: 15
Assign rand_sets[23]: 71  LLC: 2048
rand_sets[23]: 71
Assign rand_sets[24]: 1127  LLC: 2048
rand_sets[24]: 1127
Assign rand_sets[25]: 1382  LLC: 2048
rand_sets[25]: 1382
Assign rand_sets[26]: 647  LLC: 2048
rand_sets[26]: 647
Assign rand_sets[27]: 857  LLC: 2048
rand_sets[27]: 857
Assign rand_sets[28]: 1450  LLC: 2048
rand_sets[28]: 1450
Assign rand_sets[29]: 1160  LLC: 2048
rand_sets[29]: 1160
Assign rand_sets[30]: 1852  LLC: 2048
rand_sets[30]: 1852
Assign rand_sets[31]: 1881  LLC: 2048
rand_sets[31]: 1881
Assign rand_sets[32]: 1770  LLC: 2048
rand_sets[32]: 1770
Assign rand_sets[33]: 1622  LLC: 2048
rand_sets[33]: 1622
Assign rand_sets[34]: 275  LLC: 2048
rand_sets[34]: 275
Assign rand_sets[35]: 635  LLC: 2048
rand_sets[35]: 635
Assign rand_sets[36]: 466  LLC: 2048
rand_sets[36]: 466
Assign rand_sets[37]: 1413  LLC: 2048
rand_sets[37]: 1413
Assign rand_sets[38]: 417  LLC: 2048
rand_sets[38]: 417
Assign rand_sets[39]: 472  LLC: 2048
rand_sets[39]: 472
Assign rand_sets[40]: 1340  LLC: 2048
rand_sets[40]: 1340
Assign rand_sets[41]: 852  LLC: 2048
rand_sets[41]: 852
Assign rand_sets[42]: 1365  LLC: 2048
rand_sets[42]: 1365
Assign rand_sets[43]: 47  LLC: 2048
rand_sets[43]: 47
Assign rand_sets[44]: 823  LLC: 2048
rand_sets[44]: 823
Assign rand_sets[45]: 686  LLC: 2048
rand_sets[45]: 686
Assign rand_sets[46]: 1637  LLC: 2048
rand_sets[46]: 1637
Assign rand_sets[47]: 1115  LLC: 2048
rand_sets[47]: 1115
Assign rand_sets[48]: 986  LLC: 2048
rand_sets[48]: 986
Assign rand_sets[49]: 258  LLC: 2048
rand_sets[49]: 258
Assign rand_sets[50]: 633  LLC: 2048
rand_sets[50]: 633
Assign rand_sets[51]: 920  LLC: 2048
rand_sets[51]: 920
Assign rand_sets[52]: 204  LLC: 2048
rand_sets[52]: 204
Assign rand_sets[53]: 227  LLC: 2048
rand_sets[53]: 227
Assign rand_sets[54]: 1818  LLC: 2048
rand_sets[54]: 1818
Assign rand_sets[55]: 886  LLC: 2048
rand_sets[55]: 886
Assign rand_sets[56]: 1422  LLC: 2048
rand_sets[56]: 1422
Assign rand_sets[57]: 607  LLC: 2048
rand_sets[57]: 607
Assign rand_sets[58]: 217  LLC: 2048
rand_sets[58]: 217
Assign rand_sets[59]: 1945  LLC: 2048
rand_sets[59]: 1945
Assign rand_sets[60]: 143  LLC: 2048
rand_sets[60]: 143
Assign rand_sets[61]: 1311  LLC: 2048
rand_sets[61]: 1311
Assign rand_sets[62]: 319  LLC: 2048
rand_sets[62]: 319
Assign rand_sets[63]: 1846  LLC: 2048
rand_sets[63]: 1846
Assign rand_sets[64]: 238  LLC: 2048
rand_sets[64]: 238
Assign rand_sets[65]: 67  LLC: 2048
rand_sets[65]: 67
Assign rand_sets[66]: 1912  LLC: 2048
rand_sets[66]: 1912
Assign rand_sets[67]: 1613  LLC: 2048
rand_sets[67]: 1613
Assign rand_sets[68]: 1293  LLC: 2048
rand_sets[68]: 1293
Assign rand_sets[69]: 1018  LLC: 2048
rand_sets[69]: 1018
Assign rand_sets[70]: 1982  LLC: 2048
rand_sets[70]: 1982
Assign rand_sets[71]: 1702  LLC: 2048
rand_sets[71]: 1702
Assign rand_sets[72]: 1498  LLC: 2048
rand_sets[72]: 1498
Assign rand_sets[73]: 228  LLC: 2048
rand_sets[73]: 228
Assign rand_sets[74]: 1414  LLC: 2048
rand_sets[74]: 1414
Assign rand_sets[75]: 1166  LLC: 2048
rand_sets[75]: 1166
Assign rand_sets[76]: 732  LLC: 2048
rand_sets[76]: 732
Assign rand_sets[77]: 297  LLC: 2048
rand_sets[77]: 297
Assign rand_sets[78]: 1133  LLC: 2048
rand_sets[78]: 1133
Assign rand_sets[79]: 846  LLC: 2048
rand_sets[79]: 846
Assign rand_sets[80]: 767  LLC: 2048
rand_sets[80]: 767
Assign rand_sets[81]: 1878  LLC: 2048
rand_sets[81]: 1878
Assign rand_sets[82]: 993  LLC: 2048
rand_sets[82]: 993
Assign rand_sets[83]: 1392  LLC: 2048
rand_sets[83]: 1392
Assign rand_sets[84]: 1568  LLC: 2048
rand_sets[84]: 1568
Assign rand_sets[85]: 1787  LLC: 2048
rand_sets[85]: 1787
Assign rand_sets[86]: 399  LLC: 2048
rand_sets[86]: 399
Assign rand_sets[87]: 1201  LLC: 2048
rand_sets[87]: 1201
Assign rand_sets[88]: 856  LLC: 2048
rand_sets[88]: 856
Assign rand_sets[89]: 773  LLC: 2048
rand_sets[89]: 773
Assign rand_sets[90]: 1680  LLC: 2048
rand_sets[90]: 1680
Assign rand_sets[91]: 1477  LLC: 2048
rand_sets[91]: 1477
Assign rand_sets[92]: 9  LLC: 2048
rand_sets[92]: 9
Assign rand_sets[93]: 1500  LLC: 2048
rand_sets[93]: 1500
Assign rand_sets[94]: 851  LLC: 2048
rand_sets[94]: 851
Assign rand_sets[95]: 973  LLC: 2048
rand_sets[95]: 973
Assign rand_sets[96]: 938  LLC: 2048
rand_sets[96]: 938
Assign rand_sets[97]: 1851  LLC: 2048
rand_sets[97]: 1851
Assign rand_sets[98]: 1608  LLC: 2048
rand_sets[98]: 1608
Assign rand_sets[99]: 1945  LLC: 2048
Assign rand_sets[99]: 1106  LLC: 2048
rand_sets[99]: 1106
Assign rand_sets[100]: 979  LLC: 2048
rand_sets[100]: 979
Assign rand_sets[101]: 338  LLC: 2048
rand_sets[101]: 338
Assign rand_sets[102]: 1693  LLC: 2048
rand_sets[102]: 1693
Assign rand_sets[103]: 6  LLC: 2048
rand_sets[103]: 6
Assign rand_sets[104]: 671  LLC: 2048
rand_sets[104]: 671
Assign rand_sets[105]: 490  LLC: 2048
rand_sets[105]: 490
Assign rand_sets[106]: 1461  LLC: 2048
rand_sets[106]: 1461
Assign rand_sets[107]: 1730  LLC: 2048
rand_sets[107]: 1730
Assign rand_sets[108]: 1030  LLC: 2048
rand_sets[108]: 1030
Assign rand_sets[109]: 19  LLC: 2048
rand_sets[109]: 19
Assign rand_sets[110]: 920  LLC: 2048
Assign rand_sets[110]: 329  LLC: 2048
rand_sets[110]: 329
Assign rand_sets[111]: 1714  LLC: 2048
rand_sets[111]: 1714
Assign rand_sets[112]: 1  LLC: 2048
rand_sets[112]: 1
Assign rand_sets[113]: 1822  LLC: 2048
rand_sets[113]: 1822
Assign rand_sets[114]: 172  LLC: 2048
rand_sets[114]: 172
Assign rand_sets[115]: 1586  LLC: 2048
rand_sets[115]: 1586
Assign rand_sets[116]: 648  LLC: 2048
rand_sets[116]: 648
Assign rand_sets[117]: 1329  LLC: 2048
rand_sets[117]: 1329
Assign rand_sets[118]: 668  LLC: 2048
rand_sets[118]: 668
Assign rand_sets[119]: 1874  LLC: 2048
rand_sets[119]: 1874
Assign rand_sets[120]: 70  LLC: 2048
rand_sets[120]: 70
Assign rand_sets[121]: 661  LLC: 2048
rand_sets[121]: 661
Assign rand_sets[122]: 1649  LLC: 2048
rand_sets[122]: 1649
Assign rand_sets[123]: 1590  LLC: 2048
rand_sets[123]: 1590
Assign rand_sets[124]: 911  LLC: 2048
rand_sets[124]: 911
Assign rand_sets[125]: 1367  LLC: 2048
rand_sets[125]: 1367
Assign rand_sets[126]: 1782  LLC: 2048
rand_sets[126]: 1782
Assign rand_sets[127]: 569  LLC: 2048
rand_sets[127]: 569
Assign rand_sets[128]: 1309  LLC: 2048
rand_sets[128]: 1309
Assign rand_sets[129]: 534  LLC: 2048
rand_sets[129]: 534
Assign rand_sets[130]: 1274  LLC: 2048
rand_sets[130]: 1274
Assign rand_sets[131]: 904  LLC: 2048
rand_sets[131]: 904
Assign rand_sets[132]: 1908  LLC: 2048
rand_sets[132]: 1908
Assign rand_sets[133]: 245  LLC: 2048
rand_sets[133]: 245
Assign rand_sets[134]: 1688  LLC: 2048
rand_sets[134]: 1688
Assign rand_sets[135]: 1660  LLC: 2048
rand_sets[135]: 1660
Assign rand_sets[136]: 1303  LLC: 2048
rand_sets[136]: 1303
Assign rand_sets[137]: 1628  LLC: 2048
rand_sets[137]: 1628
Assign rand_sets[138]: 1857  LLC: 2048
rand_sets[138]: 1857
Assign rand_sets[139]: 187  LLC: 2048
rand_sets[139]: 187
Assign rand_sets[140]: 1389  LLC: 2048
rand_sets[140]: 1389
Assign rand_sets[141]: 881  LLC: 2048
rand_sets[141]: 881
Assign rand_sets[142]: 1166  LLC: 2048
Assign rand_sets[142]: 1039  LLC: 2048
rand_sets[142]: 1039
Assign rand_sets[143]: 1136  LLC: 2048
rand_sets[143]: 1136
Assign rand_sets[144]: 601  LLC: 2048
rand_sets[144]: 601
Assign rand_sets[145]: 967  LLC: 2048
rand_sets[145]: 967
Assign rand_sets[146]: 769  LLC: 2048
rand_sets[146]: 769
Assign rand_sets[147]: 283  LLC: 2048
rand_sets[147]: 283
Assign rand_sets[148]: 559  LLC: 2048
rand_sets[148]: 559
Assign rand_sets[149]: 1075  LLC: 2048
rand_sets[149]: 1075
Assign rand_sets[150]: 829  LLC: 2048
rand_sets[150]: 829
Assign rand_sets[151]: 1681  LLC: 2048
rand_sets[151]: 1681
Assign rand_sets[152]: 1728  LLC: 2048
rand_sets[152]: 1728
Assign rand_sets[153]: 541  LLC: 2048
rand_sets[153]: 541
Assign rand_sets[154]: 421  LLC: 2048
rand_sets[154]: 421
Assign rand_sets[155]: 1037  LLC: 2048
rand_sets[155]: 1037
Assign rand_sets[156]: 13  LLC: 2048
rand_sets[156]: 13
Assign rand_sets[157]: 1707  LLC: 2048
rand_sets[157]: 1707
Assign rand_sets[158]: 1075  LLC: 2048
Assign rand_sets[158]: 1933  LLC: 2048
rand_sets[158]: 1933
Assign rand_sets[159]: 1406  LLC: 2048
rand_sets[159]: 1406
Assign rand_sets[160]: 94  LLC: 2048
rand_sets[160]: 94
Assign rand_sets[161]: 1423  LLC: 2048
rand_sets[161]: 1423
Assign rand_sets[162]: 1854  LLC: 2048
rand_sets[162]: 1854
Assign rand_sets[163]: 230  LLC: 2048
rand_sets[163]: 230
Assign rand_sets[164]: 104  LLC: 2048
rand_sets[164]: 104
Assign rand_sets[165]: 1652  LLC: 2048
rand_sets[165]: 1652
Assign rand_sets[166]: 1446  LLC: 2048
rand_sets[166]: 1446
Assign rand_sets[167]: 1338  LLC: 2048
rand_sets[167]: 1338
Assign rand_sets[168]: 177  LLC: 2048
rand_sets[168]: 177
Assign rand_sets[169]: 195  LLC: 2048
rand_sets[169]: 195
Assign rand_sets[170]: 1171  LLC: 2048
rand_sets[170]: 1171
Assign rand_sets[171]: 1297  LLC: 2048
rand_sets[171]: 1297
Assign rand_sets[172]: 1704  LLC: 2048
rand_sets[172]: 1704
Assign rand_sets[173]: 100  LLC: 2048
rand_sets[173]: 100
Assign rand_sets[174]: 711  LLC: 2048
rand_sets[174]: 711
Assign rand_sets[175]: 1243  LLC: 2048
rand_sets[175]: 1243
Assign rand_sets[176]: 1738  LLC: 2048
rand_sets[176]: 1738
Assign rand_sets[177]: 1504  LLC: 2048
rand_sets[177]: 1504
Assign rand_sets[178]: 96  LLC: 2048
rand_sets[178]: 96
Assign rand_sets[179]: 1249  LLC: 2048
rand_sets[179]: 1249
Assign rand_sets[180]: 1267  LLC: 2048
rand_sets[180]: 1267
Assign rand_sets[181]: 1727  LLC: 2048
rand_sets[181]: 1727
Assign rand_sets[182]: 1545  LLC: 2048
rand_sets[182]: 1545
Assign rand_sets[183]: 1792  LLC: 2048
rand_sets[183]: 1792
Assign rand_sets[184]: 1383  LLC: 2048
rand_sets[184]: 1383
Assign rand_sets[185]: 1954  LLC: 2048
rand_sets[185]: 1954
Assign rand_sets[186]: 739  LLC: 2048
rand_sets[186]: 739
Assign rand_sets[187]: 1061  LLC: 2048
rand_sets[187]: 1061
Assign rand_sets[188]: 672  LLC: 2048
rand_sets[188]: 672
Assign rand_sets[189]: 1057  LLC: 2048
rand_sets[189]: 1057
Assign rand_sets[190]: 1329  LLC: 2048
Assign rand_sets[190]: 1415  LLC: 2048
rand_sets[190]: 1415
Assign rand_sets[191]: 981  LLC: 2048
rand_sets[191]: 981
Assign rand_sets[192]: 98  LLC: 2048
rand_sets[192]: 98
Assign rand_sets[193]: 453  LLC: 2048
rand_sets[193]: 453
Assign rand_sets[194]: 1448  LLC: 2048
rand_sets[194]: 1448
Assign rand_sets[195]: 79  LLC: 2048
rand_sets[195]: 79
Assign rand_sets[196]: 126  LLC: 2048
rand_sets[196]: 126
Assign rand_sets[197]: 1582  LLC: 2048
rand_sets[197]: 1582
Assign rand_sets[198]: 1289  LLC: 2048
rand_sets[198]: 1289
Assign rand_sets[199]: 875  LLC: 2048
rand_sets[199]: 875
Assign rand_sets[200]: 404  LLC: 2048
rand_sets[200]: 404
Assign rand_sets[201]: 415  LLC: 2048
rand_sets[201]: 415
Assign rand_sets[202]: 1712  LLC: 2048
rand_sets[202]: 1712
Assign rand_sets[203]: 1389  LLC: 2048
Assign rand_sets[203]: 169  LLC: 2048
rand_sets[203]: 169
Assign rand_sets[204]: 158  LLC: 2048
rand_sets[204]: 158
Assign rand_sets[205]: 90  LLC: 2048
rand_sets[205]: 90
Assign rand_sets[206]: 1291  LLC: 2048
rand_sets[206]: 1291
Assign rand_sets[207]: 838  LLC: 2048
rand_sets[207]: 838
Assign rand_sets[208]: 1904  LLC: 2048
rand_sets[208]: 1904
Assign rand_sets[209]: 640  LLC: 2048
rand_sets[209]: 640
Assign rand_sets[210]: 1462  LLC: 2048
rand_sets[210]: 1462
Assign rand_sets[211]: 1487  LLC: 2048
rand_sets[211]: 1487
Assign rand_sets[212]: 1863  LLC: 2048
rand_sets[212]: 1863
Assign rand_sets[213]: 1036  LLC: 2048
rand_sets[213]: 1036
Assign rand_sets[214]: 1702  LLC: 2048
Assign rand_sets[214]: 933  LLC: 2048
rand_sets[214]: 933
Assign rand_sets[215]: 554  LLC: 2048
rand_sets[215]: 554
Assign rand_sets[216]: 1496  LLC: 2048
rand_sets[216]: 1496
Assign rand_sets[217]: 1708  LLC: 2048
rand_sets[217]: 1708
Assign rand_sets[218]: 1275  LLC: 2048
Assign rand_sets[218]: 416  LLC: 2048
rand_sets[218]: 416
Assign rand_sets[219]: 491  LLC: 2048
rand_sets[219]: 491
Assign rand_sets[220]: 183  LLC: 2048
rand_sets[220]: 183
Assign rand_sets[221]: 1657  LLC: 2048
rand_sets[221]: 1657
Assign rand_sets[222]: 1060  LLC: 2048
rand_sets[222]: 1060
Assign rand_sets[223]: 626  LLC: 2048
rand_sets[223]: 626
Assign rand_sets[224]: 1315  LLC: 2048
rand_sets[224]: 1315
Assign rand_sets[225]: 1682  LLC: 2048
rand_sets[225]: 1682
Assign rand_sets[226]: 1352  LLC: 2048
rand_sets[226]: 1352
Assign rand_sets[227]: 1152  LLC: 2048
rand_sets[227]: 1152
Assign rand_sets[228]: 965  LLC: 2048
rand_sets[228]: 965
Assign rand_sets[229]: 1190  LLC: 2048
rand_sets[229]: 1190
Assign rand_sets[230]: 1191  LLC: 2048
rand_sets[230]: 1191
Assign rand_sets[231]: 645  LLC: 2048
rand_sets[231]: 645
Assign rand_sets[232]: 695  LLC: 2048
rand_sets[232]: 695
Assign rand_sets[233]: 1495  LLC: 2048
rand_sets[233]: 1495
Assign rand_sets[234]: 1932  LLC: 2048
rand_sets[234]: 1932
Assign rand_sets[235]: 656  LLC: 2048
rand_sets[235]: 656
Assign rand_sets[236]: 1508  LLC: 2048
rand_sets[236]: 1508
Assign rand_sets[237]: 939  LLC: 2048
rand_sets[237]: 939
Assign rand_sets[238]: 355  LLC: 2048
rand_sets[238]: 355
Assign rand_sets[239]: 1092  LLC: 2048
rand_sets[239]: 1092
Assign rand_sets[240]: 850  LLC: 2048
rand_sets[240]: 850
Assign rand_sets[241]: 102  LLC: 2048
rand_sets[241]: 102
Assign rand_sets[242]: 1763  LLC: 2048
rand_sets[242]: 1763
Assign rand_sets[243]: 668  LLC: 2048
Assign rand_sets[243]: 51  LLC: 2048
rand_sets[243]: 51
Assign rand_sets[244]: 1317  LLC: 2048
rand_sets[244]: 1317
Assign rand_sets[245]: 2041  LLC: 2048
rand_sets[245]: 2041
Assign rand_sets[246]: 1374  LLC: 2048
rand_sets[246]: 1374
Assign rand_sets[247]: 682  LLC: 2048
rand_sets[247]: 682
Assign rand_sets[248]: 1466  LLC: 2048
rand_sets[248]: 1466
Assign rand_sets[249]: 1139  LLC: 2048
rand_sets[249]: 1139
Assign rand_sets[250]: 1632  LLC: 2048
rand_sets[250]: 1632
Assign rand_sets[251]: 1117  LLC: 2048
rand_sets[251]: 1117
Assign rand_sets[252]: 1611  LLC: 2048
rand_sets[252]: 1611
Assign rand_sets[253]: 1905  LLC: 2048
rand_sets[253]: 1905
Assign rand_sets[254]: 1662  LLC: 2048
Assign rand_sets[254]: 446  LLC: 2048
rand_sets[254]: 446
Assign rand_sets[255]: 1705  LLC: 2048
rand_sets[255]: 1705
LLC Next Line Prefetcher
Heartbeat CPU 0 instructions: 10000001 cycles: 5079459 heartbeat IPC: 1.96871 cumulative IPC: 1.96871 (Simulation time: 0 hr 0 min 20 sec) 
Heartbeat CPU 0 instructions: 20000002 cycles: 10145453 heartbeat IPC: 1.97395 cumulative IPC: 1.97133 (Simulation time: 0 hr 0 min 40 sec) 
Heartbeat CPU 0 instructions: 30000000 cycles: 15216887 heartbeat IPC: 1.97183 cumulative IPC: 1.97149 (Simulation time: 0 hr 1 min 1 sec) 
Heartbeat CPU 0 instructions: 40000002 cycles: 20297543 heartbeat IPC: 1.96825 cumulative IPC: 1.97068 (Simulation time: 0 hr 1 min 21 sec) 
Heartbeat CPU 0 instructions: 50000000 cycles: 25371348 heartbeat IPC: 1.97091 cumulative IPC: 1.97073 (Simulation time: 0 hr 1 min 41 sec) 
Heartbeat CPU 0 instructions: 60000000 cycles: 30450725 heartbeat IPC: 1.96875 cumulative IPC: 1.9704 (Simulation time: 0 hr 2 min 2 sec) 
Heartbeat CPU 0 instructions: 70000002 cycles: 35507628 heartbeat IPC: 1.9775 cumulative IPC: 1.97141 (Simulation time: 0 hr 2 min 22 sec) 
Heartbeat CPU 0 instructions: 80000000 cycles: 40574859 heartbeat IPC: 1.97346 cumulative IPC: 1.97166 (Simulation time: 0 hr 2 min 42 sec) 
Heartbeat CPU 0 instructions: 90000000 cycles: 45650154 heartbeat IPC: 1.97033 cumulative IPC: 1.97152 (Simulation time: 0 hr 3 min 3 sec) 
Heartbeat CPU 0 instructions: 100000000 cycles: 50485168 heartbeat IPC: 2.06825 cumulative IPC: 1.98078 (Simulation time: 0 hr 3 min 22 sec) 
Heartbeat CPU 0 instructions: 110000000 cycles: 55558919 heartbeat IPC: 1.97093 cumulative IPC: 1.97988 (Simulation time: 0 hr 3 min 43 sec) 
Heartbeat CPU 0 instructions: 120000000 cycles: 60635762 heartbeat IPC: 1.96973 cumulative IPC: 1.97903 (Simulation time: 0 hr 4 min 3 sec) 
Heartbeat CPU 0 instructions: 130000001 cycles: 65729701 heartbeat IPC: 1.96312 cumulative IPC: 1.9778 (Simulation time: 0 hr 4 min 24 sec) 
Heartbeat CPU 0 instructions: 140000002 cycles: 70800947 heartbeat IPC: 1.9719 cumulative IPC: 1.97737 (Simulation time: 0 hr 4 min 44 sec) 
Heartbeat CPU 0 instructions: 150000000 cycles: 75869244 heartbeat IPC: 1.97305 cumulative IPC: 1.97709 (Simulation time: 0 hr 5 min 5 sec) 
Heartbeat CPU 0 instructions: 160000003 cycles: 80936306 heartbeat IPC: 1.97353 cumulative IPC: 1.97686 (Simulation time: 0 hr 5 min 25 sec) 
Heartbeat CPU 0 instructions: 170000000 cycles: 86010708 heartbeat IPC: 1.97067 cumulative IPC: 1.9765 (Simulation time: 0 hr 5 min 46 sec) 
Heartbeat CPU 0 instructions: 180000003 cycles: 91082509 heartbeat IPC: 1.97169 cumulative IPC: 1.97623 (Simulation time: 0 hr 6 min 6 sec) 
Heartbeat CPU 0 instructions: 190000002 cycles: 95954457 heartbeat IPC: 2.05257 cumulative IPC: 1.98011 (Simulation time: 0 hr 6 min 27 sec) 
Heartbeat CPU 0 instructions: 200000001 cycles: 100946053 heartbeat IPC: 2.00337 cumulative IPC: 1.98126 (Simulation time: 0 hr 6 min 47 sec) 

Warmup complete CPU 0 instructions: 200000001 cycles: 100946053 (Simulation time: 0 hr 6 min 47 sec) 

Heartbeat CPU 0 instructions: 210000000 cycles: 113072612 heartbeat IPC: 0.824636 cumulative IPC: 0.824636 (Simulation time: 0 hr 7 min 3 sec) 
Heartbeat CPU 0 instructions: 220000000 cycles: 125499350 heartbeat IPC: 0.804716 cumulative IPC: 0.814555 (Simulation time: 0 hr 7 min 19 sec) 
Heartbeat CPU 0 instructions: 230000002 cycles: 137633763 heartbeat IPC: 0.824103 cumulative IPC: 0.817713 (Simulation time: 0 hr 7 min 35 sec) 
Heartbeat CPU 0 instructions: 240000001 cycles: 149852599 heartbeat IPC: 0.818408 cumulative IPC: 0.817886 (Simulation time: 0 hr 7 min 50 sec) 
Heartbeat CPU 0 instructions: 250000002 cycles: 162665217 heartbeat IPC: 0.780481 cumulative IPC: 0.810121 (Simulation time: 0 hr 8 min 6 sec) 
Heartbeat CPU 0 instructions: 260000000 cycles: 174803207 heartbeat IPC: 0.823859 cumulative IPC: 0.812379 (Simulation time: 0 hr 8 min 22 sec) 
Heartbeat CPU 0 instructions: 270000000 cycles: 187044076 heartbeat IPC: 0.816935 cumulative IPC: 0.813027 (Simulation time: 0 hr 8 min 38 sec) 
Heartbeat CPU 0 instructions: 280000001 cycles: 199161421 heartbeat IPC: 0.825263 cumulative IPC: 0.814536 (Simulation time: 0 hr 8 min 54 sec) 
Heartbeat CPU 0 instructions: 290000002 cycles: 211346312 heartbeat IPC: 0.820689 cumulative IPC: 0.815215 (Simulation time: 0 hr 9 min 10 sec) 
Heartbeat CPU 0 instructions: 300000000 cycles: 223754690 heartbeat IPC: 0.805907 cumulative IPC: 0.814275 (Simulation time: 0 hr 9 min 26 sec) 
Heartbeat CPU 0 instructions: 310000000 cycles: 235862367 heartbeat IPC: 0.825922 cumulative IPC: 0.81532 (Simulation time: 0 hr 9 min 41 sec) 
Heartbeat CPU 0 instructions: 320000001 cycles: 248130411 heartbeat IPC: 0.815126 cumulative IPC: 0.815304 (Simulation time: 0 hr 9 min 57 sec) 
Heartbeat CPU 0 instructions: 330000000 cycles: 260524315 heartbeat IPC: 0.806848 cumulative IPC: 0.814647 (Simulation time: 0 hr 10 min 12 sec) 
Heartbeat CPU 0 instructions: 340000002 cycles: 272644803 heartbeat IPC: 0.825049 cumulative IPC: 0.815382 (Simulation time: 0 hr 10 min 28 sec) 
Heartbeat CPU 0 instructions: 350000000 cycles: 284923222 heartbeat IPC: 0.814437 cumulative IPC: 0.815319 (Simulation time: 0 hr 10 min 43 sec) 
Heartbeat CPU 0 instructions: 360000000 cycles: 297342733 heartbeat IPC: 0.805185 cumulative IPC: 0.814678 (Simulation time: 0 hr 10 min 59 sec) 
Heartbeat CPU 0 instructions: 370000000 cycles: 309467365 heartbeat IPC: 0.824767 cumulative IPC: 0.815264 (Simulation time: 0 hr 11 min 15 sec) 
Heartbeat CPU 0 instructions: 380000002 cycles: 321773766 heartbeat IPC: 0.812585 cumulative IPC: 0.815115 (Simulation time: 0 hr 11 min 30 sec) 
Heartbeat CPU 0 instructions: 390000000 cycles: 334019858 heartbeat IPC: 0.816587 cumulative IPC: 0.815192 (Simulation time: 0 hr 11 min 46 sec) 
Heartbeat CPU 0 instructions: 400000002 cycles: 346133678 heartbeat IPC: 0.825504 cumulative IPC: 0.815702 (Simulation time: 0 hr 12 min 2 sec) 
Heartbeat CPU 0 instructions: 410000002 cycles: 358376924 heartbeat IPC: 0.816777 cumulative IPC: 0.815753 (Simulation time: 0 hr 12 min 17 sec) 
Heartbeat CPU 0 instructions: 420000000 cycles: 372239522 heartbeat IPC: 0.721365 cumulative IPC: 0.81093 (Simulation time: 0 hr 12 min 33 sec) 
Heartbeat CPU 0 instructions: 430000001 cycles: 384350138 heartbeat IPC: 0.825722 cumulative IPC: 0.811562 (Simulation time: 0 hr 12 min 49 sec) 
Heartbeat CPU 0 instructions: 440000000 cycles: 396613444 heartbeat IPC: 0.815441 cumulative IPC: 0.811723 (Simulation time: 0 hr 13 min 4 sec) 
Heartbeat CPU 0 instructions: 450000002 cycles: 409004539 heartbeat IPC: 0.807031 cumulative IPC: 0.811534 (Simulation time: 0 hr 13 min 20 sec) 
Heartbeat CPU 0 instructions: 460000001 cycles: 421111069 heartbeat IPC: 0.826 cumulative IPC: 0.812081 (Simulation time: 0 hr 13 min 36 sec) 
Heartbeat CPU 0 instructions: 470000000 cycles: 433495852 heartbeat IPC: 0.807442 cumulative IPC: 0.811908 (Simulation time: 0 hr 13 min 51 sec) 
Heartbeat CPU 0 instructions: 480000003 cycles: 446656726 heartbeat IPC: 0.759828 cumulative IPC: 0.809926 (Simulation time: 0 hr 14 min 7 sec) 
Heartbeat CPU 0 instructions: 490000000 cycles: 458812554 heartbeat IPC: 0.82265 cumulative IPC: 0.810358 (Simulation time: 0 hr 14 min 22 sec) 
Heartbeat CPU 0 instructions: 500000003 cycles: 471258379 heartbeat IPC: 0.803483 cumulative IPC: 0.810127 (Simulation time: 0 hr 14 min 38 sec) 
Heartbeat CPU 0 instructions: 510000000 cycles: 483361087 heartbeat IPC: 0.826261 cumulative IPC: 0.810638 (Simulation time: 0 hr 14 min 54 sec) 
Heartbeat CPU 0 instructions: 520000000 cycles: 495751985 heartbeat IPC: 0.807044 cumulative IPC: 0.810525 (Simulation time: 0 hr 15 min 9 sec) 
Heartbeat CPU 0 instructions: 530000000 cycles: 507945447 heartbeat IPC: 0.820112 cumulative IPC: 0.810812 (Simulation time: 0 hr 15 min 25 sec) 
Heartbeat CPU 0 instructions: 540000002 cycles: 520057460 heartbeat IPC: 0.825627 cumulative IPC: 0.81124 (Simulation time: 0 hr 15 min 41 sec) 
Heartbeat CPU 0 instructions: 550000000 cycles: 532298813 heartbeat IPC: 0.816903 cumulative IPC: 0.811401 (Simulation time: 0 hr 15 min 56 sec) 
Heartbeat CPU 0 instructions: 560000003 cycles: 546197387 heartbeat IPC: 0.719499 cumulative IPC: 0.808532 (Simulation time: 0 hr 16 min 12 sec) 
Heartbeat CPU 0 instructions: 570000001 cycles: 558458309 heartbeat IPC: 0.815599 cumulative IPC: 0.808721 (Simulation time: 0 hr 16 min 28 sec) 
Heartbeat CPU 0 instructions: 580000000 cycles: 570925682 heartbeat IPC: 0.802094 cumulative IPC: 0.808546 (Simulation time: 0 hr 16 min 44 sec) 
Heartbeat CPU 0 instructions: 590000000 cycles: 583034730 heartbeat IPC: 0.825829 cumulative IPC: 0.80898 (Simulation time: 0 hr 16 min 59 sec) 
Heartbeat CPU 0 instructions: 600000000 cycles: 595202969 heartbeat IPC: 0.821812 cumulative IPC: 0.809296 (Simulation time: 0 hr 17 min 15 sec) 
Heartbeat CPU 0 instructions: 610000001 cycles: 607619769 heartbeat IPC: 0.805361 cumulative IPC: 0.809199 (Simulation time: 0 hr 17 min 31 sec) 
Heartbeat CPU 0 instructions: 620000001 cycles: 619726145 heartbeat IPC: 0.826011 cumulative IPC: 0.809592 (Simulation time: 0 hr 17 min 46 sec) 
Heartbeat CPU 0 instructions: 630000000 cycles: 631887859 heartbeat IPC: 0.822252 cumulative IPC: 0.809882 (Simulation time: 0 hr 18 min 2 sec) 
Heartbeat CPU 0 instructions: 640000002 cycles: 644293650 heartbeat IPC: 0.806075 cumulative IPC: 0.809795 (Simulation time: 0 hr 18 min 17 sec) 
Heartbeat CPU 0 instructions: 650000001 cycles: 656418235 heartbeat IPC: 0.82477 cumulative IPC: 0.810122 (Simulation time: 0 hr 18 min 33 sec) 
Heartbeat CPU 0 instructions: 660000000 cycles: 668655492 heartbeat IPC: 0.817177 cumulative IPC: 0.810274 (Simulation time: 0 hr 18 min 48 sec) 
Heartbeat CPU 0 instructions: 670000001 cycles: 681065543 heartbeat IPC: 0.805799 cumulative IPC: 0.810178 (Simulation time: 0 hr 19 min 4 sec) 
Heartbeat CPU 0 instructions: 680000000 cycles: 693176488 heartbeat IPC: 0.825699 cumulative IPC: 0.810495 (Simulation time: 0 hr 19 min 20 sec) 
Heartbeat CPU 0 instructions: 690000002 cycles: 705409629 heartbeat IPC: 0.817452 cumulative IPC: 0.810636 (Simulation time: 0 hr 19 min 35 sec) 
Heartbeat CPU 0 instructions: 700000003 cycles: 717830636 heartbeat IPC: 0.805088 cumulative IPC: 0.810524 (Simulation time: 0 hr 19 min 51 sec) 
Finished CPU 0 instructions: 500000002 cycles: 616884583 cumulative IPC: 0.810524 (Simulation time: 0 hr 19 min 51 sec) 

ChampSim completed all CPUs

Region of Interest Statistics

CPU 0 cumulative IPC: 0.810524 instructions: 500000002 cycles: 616884583
L1D TOTAL     ACCESS:  242149533  HIT:  233712996  MISS:    8436537
L1D LOAD      ACCESS:   99280908  HIT:   98753834  MISS:     527074
L1D RFO       ACCESS:   50139936  HIT:   50135806  MISS:       4130
L1D PREFETCH  ACCESS:   92728689  HIT:   84823356  MISS:    7905333
L1D WRITEBACK ACCESS:          0  HIT:          0  MISS:          0
L1D PREFETCH  REQUESTED:   99353866  ISSUED:   98454501  USEFUL:    7629954  USELESS:     275361
L1D AVERAGE MISS LATENCY: 21.2902 cycles
L1I TOTAL     ACCESS:   75678942  HIT:   75678942  MISS:          0
L1I LOAD      ACCESS:   75678942  HIT:   75678942  MISS:          0
L1I RFO       ACCESS:          0  HIT:          0  MISS:          0
L1I PREFETCH  ACCESS:          0  HIT:          0  MISS:          0
L1I WRITEBACK ACCESS:          0  HIT:          0  MISS:          0
L1I PREFETCH  REQUESTED:          0  ISSUED:          0  USEFUL:          0  USELESS:          0
L1I AVERAGE MISS LATENCY: -nan cycles
L2C TOTAL     ACCESS:   16168999  HIT:   11917422  MISS:    4251577
L2C LOAD      ACCESS:     477214  HIT:     307199  MISS:     170015
L2C RFO       ACCESS:       3423  HIT:       1520  MISS:       1903
L2C PREFETCH  ACCESS:   15605297  HIT:   11525672  MISS:    4079625
L2C WRITEBACK ACCESS:      83065  HIT:      83031  MISS:         34
L2C PREFETCH  REQUESTED:    8328471  ISSUED:    8194355  USEFUL:      33760  USELESS:    4045863
L2C AVERAGE MISS LATENCY: 50.3409 cycles
LLC TOTAL     ACCESS:    7704464  HIT:    3380648  MISS:    4323816
LLC LOAD      ACCESS:     169570  HIT:       9774  MISS:     159796
LLC RFO       ACCESS:       1681  HIT:        317  MISS:       1364
LLC PREFETCH  ACCESS:    7487050  HIT:    3341503  MISS:    4145547
LLC WRITEBACK ACCESS:      46163  HIT:      29054  MISS:      17109
LLC PREFETCH  REQUESTED:    4063950  ISSUED:    4000769  USEFUL:       6875  USELESS:    4138872
LLC AVERAGE MISS LATENCY: 82.7069 cycles
Major fault: 0 Minor fault: 11337
CPU 0 L1I next line prefetcher final stats
CPU 0 L1D next line prefetcher final stats
CPU 0 L2C next line prefetcher final stats
LLC Next Line Prefetcher Final Stats: none

DRAM Statistics
 CHANNEL 0
 RQ ROW_BUFFER_HIT:    3841178  ROW_BUFFER_MISS:     465529
 DBUS_CONGESTED:     253329
 WQ ROW_BUFFER_HIT:      29707  ROW_BUFFER_MISS:      15896  FULL:          0

 AVG_CONGESTED_CYCLE: 2

CPU 0 Branch Prediction Accuracy: 94.726% MPKI: 12.5116 Average ROB Occupancy at Mispredict: 54.2677

Branch types
NOT_BRANCH: 381384179 76.2768%
BRANCH_DIRECT_JUMP: 12478690 2.49574%
BRANCH_INDIRECT: 0 0%
BRANCH_CONDITIONAL: 93606949 18.7214%
BRANCH_DIRECT_CALL: 6264878 1.25298%
BRANCH_INDIRECT_CALL: 54 1.08e-05%
BRANCH_RETURN: 6264932 1.25299%
BRANCH_OTHER: 0 0%

