
*** ChampSim Multicore Out-of-Order Simulator ***

Warmup Instructions: 200000000
Simulation Instructions: 500000000
Number of CPUs: 1
LLC sets: 2048
LLC ways: 16
Off-chip DRAM Size: 4096 MB Channels: 1 Width: 64-bit Data Rate: 3200 MT/s

CPU 0 runs /home/dengshuting/ChampSim/dpc3_traces/602.gcc_s-734B.champsimtrace.xz
CPU 0 Bimodal branch predictor
Initialize SHIP state
Assign rand_sets[0]: 454  LLC: 2048
rand_sets[0]: 454
Assign rand_sets[1]: 1662  LLC: 2048
rand_sets[1]: 1662
Assign rand_sets[2]: 1921  LLC: 2048
rand_sets[2]: 1921
Assign rand_sets[3]: 1131  LLC: 2048
rand_sets[3]: 1131
Assign rand_sets[4]: 331  LLC: 2048
rand_sets[4]: 331
Assign rand_sets[5]: 1531  LLC: 2048
rand_sets[5]: 1531
Assign rand_sets[6]: 482  LLC: 2048
rand_sets[6]: 482
Assign rand_sets[7]: 1275  LLC: 2048
rand_sets[7]: 1275
Assign rand_sets[8]: 1876  LLC: 2048
rand_sets[8]: 1876
Assign rand_sets[9]: 2038  LLC: 2048
rand_sets[9]: 2038
Assign rand_sets[10]: 701  LLC: 2048
rand_sets[10]: 701
Assign rand_sets[11]: 479  LLC: 2048
rand_sets[11]: 479
Assign rand_sets[12]: 892  LLC: 2048
rand_sets[12]: 892
Assign rand_sets[13]: 1820  LLC: 2048
rand_sets[13]: 1820
Assign rand_sets[14]: 1505  LLC: 2048
rand_sets[14]: 1505
Assign rand_sets[15]: 1159  LLC: 2048
rand_sets[15]: 1159
Assign rand_sets[16]: 513  LLC: 2048
rand_sets[16]: 513
Assign rand_sets[17]: 703  LLC: 2048
rand_sets[17]: 703
Assign rand_sets[18]: 561  LLC: 2048
rand_sets[18]: 561
Assign rand_sets[19]: 990  LLC: 2048
rand_sets[19]: 990
Assign rand_sets[20]: 342  LLC: 2048
rand_sets[20]: 342
Assign rand_sets[21]: 882  LLC: 2048
rand_sets[21]: 882
Assign rand_sets[22]: 15  LLC: 2048
rand_sets[22]: 15
Assign rand_sets[23]: 71  LLC: 2048
rand_sets[23]: 71
Assign rand_sets[24]: 1127  LLC: 2048
rand_sets[24]: 1127
Assign rand_sets[25]: 1382  LLC: 2048
rand_sets[25]: 1382
Assign rand_sets[26]: 647  LLC: 2048
rand_sets[26]: 647
Assign rand_sets[27]: 857  LLC: 2048
rand_sets[27]: 857
Assign rand_sets[28]: 1450  LLC: 2048
rand_sets[28]: 1450
Assign rand_sets[29]: 1160  LLC: 2048
rand_sets[29]: 1160
Assign rand_sets[30]: 1852  LLC: 2048
rand_sets[30]: 1852
Assign rand_sets[31]: 1881  LLC: 2048
rand_sets[31]: 1881
Assign rand_sets[32]: 1770  LLC: 2048
rand_sets[32]: 1770
Assign rand_sets[33]: 1622  LLC: 2048
rand_sets[33]: 1622
Assign rand_sets[34]: 275  LLC: 2048
rand_sets[34]: 275
Assign rand_sets[35]: 635  LLC: 2048
rand_sets[35]: 635
Assign rand_sets[36]: 466  LLC: 2048
rand_sets[36]: 466
Assign rand_sets[37]: 1413  LLC: 2048
rand_sets[37]: 1413
Assign rand_sets[38]: 417  LLC: 2048
rand_sets[38]: 417
Assign rand_sets[39]: 472  LLC: 2048
rand_sets[39]: 472
Assign rand_sets[40]: 1340  LLC: 2048
rand_sets[40]: 1340
Assign rand_sets[41]: 852  LLC: 2048
rand_sets[41]: 852
Assign rand_sets[42]: 1365  LLC: 2048
rand_sets[42]: 1365
Assign rand_sets[43]: 47  LLC: 2048
rand_sets[43]: 47
Assign rand_sets[44]: 823  LLC: 2048
rand_sets[44]: 823
Assign rand_sets[45]: 686  LLC: 2048
rand_sets[45]: 686
Assign rand_sets[46]: 1637  LLC: 2048
rand_sets[46]: 1637
Assign rand_sets[47]: 1115  LLC: 2048
rand_sets[47]: 1115
Assign rand_sets[48]: 986  LLC: 2048
rand_sets[48]: 986
Assign rand_sets[49]: 258  LLC: 2048
rand_sets[49]: 258
Assign rand_sets[50]: 633  LLC: 2048
rand_sets[50]: 633
Assign rand_sets[51]: 920  LLC: 2048
rand_sets[51]: 920
Assign rand_sets[52]: 204  LLC: 2048
rand_sets[52]: 204
Assign rand_sets[53]: 227  LLC: 2048
rand_sets[53]: 227
Assign rand_sets[54]: 1818  LLC: 2048
rand_sets[54]: 1818
Assign rand_sets[55]: 886  LLC: 2048
rand_sets[55]: 886
Assign rand_sets[56]: 1422  LLC: 2048
rand_sets[56]: 1422
Assign rand_sets[57]: 607  LLC: 2048
rand_sets[57]: 607
Assign rand_sets[58]: 217  LLC: 2048
rand_sets[58]: 217
Assign rand_sets[59]: 1945  LLC: 2048
rand_sets[59]: 1945
Assign rand_sets[60]: 143  LLC: 2048
rand_sets[60]: 143
Assign rand_sets[61]: 1311  LLC: 2048
rand_sets[61]: 1311
Assign rand_sets[62]: 319  LLC: 2048
rand_sets[62]: 319
Assign rand_sets[63]: 1846  LLC: 2048
rand_sets[63]: 1846
Assign rand_sets[64]: 238  LLC: 2048
rand_sets[64]: 238
Assign rand_sets[65]: 67  LLC: 2048
rand_sets[65]: 67
Assign rand_sets[66]: 1912  LLC: 2048
rand_sets[66]: 1912
Assign rand_sets[67]: 1613  LLC: 2048
rand_sets[67]: 1613
Assign rand_sets[68]: 1293  LLC: 2048
rand_sets[68]: 1293
Assign rand_sets[69]: 1018  LLC: 2048
rand_sets[69]: 1018
Assign rand_sets[70]: 1982  LLC: 2048
rand_sets[70]: 1982
Assign rand_sets[71]: 1702  LLC: 2048
rand_sets[71]: 1702
Assign rand_sets[72]: 1498  LLC: 2048
rand_sets[72]: 1498
Assign rand_sets[73]: 228  LLC: 2048
rand_sets[73]: 228
Assign rand_sets[74]: 1414  LLC: 2048
rand_sets[74]: 1414
Assign rand_sets[75]: 1166  LLC: 2048
rand_sets[75]: 1166
Assign rand_sets[76]: 732  LLC: 2048
rand_sets[76]: 732
Assign rand_sets[77]: 297  LLC: 2048
rand_sets[77]: 297
Assign rand_sets[78]: 1133  LLC: 2048
rand_sets[78]: 1133
Assign rand_sets[79]: 846  LLC: 2048
rand_sets[79]: 846
Assign rand_sets[80]: 767  LLC: 2048
rand_sets[80]: 767
Assign rand_sets[81]: 1878  LLC: 2048
rand_sets[81]: 1878
Assign rand_sets[82]: 993  LLC: 2048
rand_sets[82]: 993
Assign rand_sets[83]: 1392  LLC: 2048
rand_sets[83]: 1392
Assign rand_sets[84]: 1568  LLC: 2048
rand_sets[84]: 1568
Assign rand_sets[85]: 1787  LLC: 2048
rand_sets[85]: 1787
Assign rand_sets[86]: 399  LLC: 2048
rand_sets[86]: 399
Assign rand_sets[87]: 1201  LLC: 2048
rand_sets[87]: 1201
Assign rand_sets[88]: 856  LLC: 2048
rand_sets[88]: 856
Assign rand_sets[89]: 773  LLC: 2048
rand_sets[89]: 773
Assign rand_sets[90]: 1680  LLC: 2048
rand_sets[90]: 1680
Assign rand_sets[91]: 1477  LLC: 2048
rand_sets[91]: 1477
Assign rand_sets[92]: 9  LLC: 2048
rand_sets[92]: 9
Assign rand_sets[93]: 1500  LLC: 2048
rand_sets[93]: 1500
Assign rand_sets[94]: 851  LLC: 2048
rand_sets[94]: 851
Assign rand_sets[95]: 973  LLC: 2048
rand_sets[95]: 973
Assign rand_sets[96]: 938  LLC: 2048
rand_sets[96]: 938
Assign rand_sets[97]: 1851  LLC: 2048
rand_sets[97]: 1851
Assign rand_sets[98]: 1608  LLC: 2048
rand_sets[98]: 1608
Assign rand_sets[99]: 1945  LLC: 2048
Assign rand_sets[99]: 1106  LLC: 2048
rand_sets[99]: 1106
Assign rand_sets[100]: 979  LLC: 2048
rand_sets[100]: 979
Assign rand_sets[101]: 338  LLC: 2048
rand_sets[101]: 338
Assign rand_sets[102]: 1693  LLC: 2048
rand_sets[102]: 1693
Assign rand_sets[103]: 6  LLC: 2048
rand_sets[103]: 6
Assign rand_sets[104]: 671  LLC: 2048
rand_sets[104]: 671
Assign rand_sets[105]: 490  LLC: 2048
rand_sets[105]: 490
Assign rand_sets[106]: 1461  LLC: 2048
rand_sets[106]: 1461
Assign rand_sets[107]: 1730  LLC: 2048
rand_sets[107]: 1730
Assign rand_sets[108]: 1030  LLC: 2048
rand_sets[108]: 1030
Assign rand_sets[109]: 19  LLC: 2048
rand_sets[109]: 19
Assign rand_sets[110]: 920  LLC: 2048
Assign rand_sets[110]: 329  LLC: 2048
rand_sets[110]: 329
Assign rand_sets[111]: 1714  LLC: 2048
rand_sets[111]: 1714
Assign rand_sets[112]: 1  LLC: 2048
rand_sets[112]: 1
Assign rand_sets[113]: 1822  LLC: 2048
rand_sets[113]: 1822
Assign rand_sets[114]: 172  LLC: 2048
rand_sets[114]: 172
Assign rand_sets[115]: 1586  LLC: 2048
rand_sets[115]: 1586
Assign rand_sets[116]: 648  LLC: 2048
rand_sets[116]: 648
Assign rand_sets[117]: 1329  LLC: 2048
rand_sets[117]: 1329
Assign rand_sets[118]: 668  LLC: 2048
rand_sets[118]: 668
Assign rand_sets[119]: 1874  LLC: 2048
rand_sets[119]: 1874
Assign rand_sets[120]: 70  LLC: 2048
rand_sets[120]: 70
Assign rand_sets[121]: 661  LLC: 2048
rand_sets[121]: 661
Assign rand_sets[122]: 1649  LLC: 2048
rand_sets[122]: 1649
Assign rand_sets[123]: 1590  LLC: 2048
rand_sets[123]: 1590
Assign rand_sets[124]: 911  LLC: 2048
rand_sets[124]: 911
Assign rand_sets[125]: 1367  LLC: 2048
rand_sets[125]: 1367
Assign rand_sets[126]: 1782  LLC: 2048
rand_sets[126]: 1782
Assign rand_sets[127]: 569  LLC: 2048
rand_sets[127]: 569
Assign rand_sets[128]: 1309  LLC: 2048
rand_sets[128]: 1309
Assign rand_sets[129]: 534  LLC: 2048
rand_sets[129]: 534
Assign rand_sets[130]: 1274  LLC: 2048
rand_sets[130]: 1274
Assign rand_sets[131]: 904  LLC: 2048
rand_sets[131]: 904
Assign rand_sets[132]: 1908  LLC: 2048
rand_sets[132]: 1908
Assign rand_sets[133]: 245  LLC: 2048
rand_sets[133]: 245
Assign rand_sets[134]: 1688  LLC: 2048
rand_sets[134]: 1688
Assign rand_sets[135]: 1660  LLC: 2048
rand_sets[135]: 1660
Assign rand_sets[136]: 1303  LLC: 2048
rand_sets[136]: 1303
Assign rand_sets[137]: 1628  LLC: 2048
rand_sets[137]: 1628
Assign rand_sets[138]: 1857  LLC: 2048
rand_sets[138]: 1857
Assign rand_sets[139]: 187  LLC: 2048
rand_sets[139]: 187
Assign rand_sets[140]: 1389  LLC: 2048
rand_sets[140]: 1389
Assign rand_sets[141]: 881  LLC: 2048
rand_sets[141]: 881
Assign rand_sets[142]: 1166  LLC: 2048
Assign rand_sets[142]: 1039  LLC: 2048
rand_sets[142]: 1039
Assign rand_sets[143]: 1136  LLC: 2048
rand_sets[143]: 1136
Assign rand_sets[144]: 601  LLC: 2048
rand_sets[144]: 601
Assign rand_sets[145]: 967  LLC: 2048
rand_sets[145]: 967
Assign rand_sets[146]: 769  LLC: 2048
rand_sets[146]: 769
Assign rand_sets[147]: 283  LLC: 2048
rand_sets[147]: 283
Assign rand_sets[148]: 559  LLC: 2048
rand_sets[148]: 559
Assign rand_sets[149]: 1075  LLC: 2048
rand_sets[149]: 1075
Assign rand_sets[150]: 829  LLC: 2048
rand_sets[150]: 829
Assign rand_sets[151]: 1681  LLC: 2048
rand_sets[151]: 1681
Assign rand_sets[152]: 1728  LLC: 2048
rand_sets[152]: 1728
Assign rand_sets[153]: 541  LLC: 2048
rand_sets[153]: 541
Assign rand_sets[154]: 421  LLC: 2048
rand_sets[154]: 421
Assign rand_sets[155]: 1037  LLC: 2048
rand_sets[155]: 1037
Assign rand_sets[156]: 13  LLC: 2048
rand_sets[156]: 13
Assign rand_sets[157]: 1707  LLC: 2048
rand_sets[157]: 1707
Assign rand_sets[158]: 1075  LLC: 2048
Assign rand_sets[158]: 1933  LLC: 2048
rand_sets[158]: 1933
Assign rand_sets[159]: 1406  LLC: 2048
rand_sets[159]: 1406
Assign rand_sets[160]: 94  LLC: 2048
rand_sets[160]: 94
Assign rand_sets[161]: 1423  LLC: 2048
rand_sets[161]: 1423
Assign rand_sets[162]: 1854  LLC: 2048
rand_sets[162]: 1854
Assign rand_sets[163]: 230  LLC: 2048
rand_sets[163]: 230
Assign rand_sets[164]: 104  LLC: 2048
rand_sets[164]: 104
Assign rand_sets[165]: 1652  LLC: 2048
rand_sets[165]: 1652
Assign rand_sets[166]: 1446  LLC: 2048
rand_sets[166]: 1446
Assign rand_sets[167]: 1338  LLC: 2048
rand_sets[167]: 1338
Assign rand_sets[168]: 177  LLC: 2048
rand_sets[168]: 177
Assign rand_sets[169]: 195  LLC: 2048
rand_sets[169]: 195
Assign rand_sets[170]: 1171  LLC: 2048
rand_sets[170]: 1171
Assign rand_sets[171]: 1297  LLC: 2048
rand_sets[171]: 1297
Assign rand_sets[172]: 1704  LLC: 2048
rand_sets[172]: 1704
Assign rand_sets[173]: 100  LLC: 2048
rand_sets[173]: 100
Assign rand_sets[174]: 711  LLC: 2048
rand_sets[174]: 711
Assign rand_sets[175]: 1243  LLC: 2048
rand_sets[175]: 1243
Assign rand_sets[176]: 1738  LLC: 2048
rand_sets[176]: 1738
Assign rand_sets[177]: 1504  LLC: 2048
rand_sets[177]: 1504
Assign rand_sets[178]: 96  LLC: 2048
rand_sets[178]: 96
Assign rand_sets[179]: 1249  LLC: 2048
rand_sets[179]: 1249
Assign rand_sets[180]: 1267  LLC: 2048
rand_sets[180]: 1267
Assign rand_sets[181]: 1727  LLC: 2048
rand_sets[181]: 1727
Assign rand_sets[182]: 1545  LLC: 2048
rand_sets[182]: 1545
Assign rand_sets[183]: 1792  LLC: 2048
rand_sets[183]: 1792
Assign rand_sets[184]: 1383  LLC: 2048
rand_sets[184]: 1383
Assign rand_sets[185]: 1954  LLC: 2048
rand_sets[185]: 1954
Assign rand_sets[186]: 739  LLC: 2048
rand_sets[186]: 739
Assign rand_sets[187]: 1061  LLC: 2048
rand_sets[187]: 1061
Assign rand_sets[188]: 672  LLC: 2048
rand_sets[188]: 672
Assign rand_sets[189]: 1057  LLC: 2048
rand_sets[189]: 1057
Assign rand_sets[190]: 1329  LLC: 2048
Assign rand_sets[190]: 1415  LLC: 2048
rand_sets[190]: 1415
Assign rand_sets[191]: 981  LLC: 2048
rand_sets[191]: 981
Assign rand_sets[192]: 98  LLC: 2048
rand_sets[192]: 98
Assign rand_sets[193]: 453  LLC: 2048
rand_sets[193]: 453
Assign rand_sets[194]: 1448  LLC: 2048
rand_sets[194]: 1448
Assign rand_sets[195]: 79  LLC: 2048
rand_sets[195]: 79
Assign rand_sets[196]: 126  LLC: 2048
rand_sets[196]: 126
Assign rand_sets[197]: 1582  LLC: 2048
rand_sets[197]: 1582
Assign rand_sets[198]: 1289  LLC: 2048
rand_sets[198]: 1289
Assign rand_sets[199]: 875  LLC: 2048
rand_sets[199]: 875
Assign rand_sets[200]: 404  LLC: 2048
rand_sets[200]: 404
Assign rand_sets[201]: 415  LLC: 2048
rand_sets[201]: 415
Assign rand_sets[202]: 1712  LLC: 2048
rand_sets[202]: 1712
Assign rand_sets[203]: 1389  LLC: 2048
Assign rand_sets[203]: 169  LLC: 2048
rand_sets[203]: 169
Assign rand_sets[204]: 158  LLC: 2048
rand_sets[204]: 158
Assign rand_sets[205]: 90  LLC: 2048
rand_sets[205]: 90
Assign rand_sets[206]: 1291  LLC: 2048
rand_sets[206]: 1291
Assign rand_sets[207]: 838  LLC: 2048
rand_sets[207]: 838
Assign rand_sets[208]: 1904  LLC: 2048
rand_sets[208]: 1904
Assign rand_sets[209]: 640  LLC: 2048
rand_sets[209]: 640
Assign rand_sets[210]: 1462  LLC: 2048
rand_sets[210]: 1462
Assign rand_sets[211]: 1487  LLC: 2048
rand_sets[211]: 1487
Assign rand_sets[212]: 1863  LLC: 2048
rand_sets[212]: 1863
Assign rand_sets[213]: 1036  LLC: 2048
rand_sets[213]: 1036
Assign rand_sets[214]: 1702  LLC: 2048
Assign rand_sets[214]: 933  LLC: 2048
rand_sets[214]: 933
Assign rand_sets[215]: 554  LLC: 2048
rand_sets[215]: 554
Assign rand_sets[216]: 1496  LLC: 2048
rand_sets[216]: 1496
Assign rand_sets[217]: 1708  LLC: 2048
rand_sets[217]: 1708
Assign rand_sets[218]: 1275  LLC: 2048
Assign rand_sets[218]: 416  LLC: 2048
rand_sets[218]: 416
Assign rand_sets[219]: 491  LLC: 2048
rand_sets[219]: 491
Assign rand_sets[220]: 183  LLC: 2048
rand_sets[220]: 183
Assign rand_sets[221]: 1657  LLC: 2048
rand_sets[221]: 1657
Assign rand_sets[222]: 1060  LLC: 2048
rand_sets[222]: 1060
Assign rand_sets[223]: 626  LLC: 2048
rand_sets[223]: 626
Assign rand_sets[224]: 1315  LLC: 2048
rand_sets[224]: 1315
Assign rand_sets[225]: 1682  LLC: 2048
rand_sets[225]: 1682
Assign rand_sets[226]: 1352  LLC: 2048
rand_sets[226]: 1352
Assign rand_sets[227]: 1152  LLC: 2048
rand_sets[227]: 1152
Assign rand_sets[228]: 965  LLC: 2048
rand_sets[228]: 965
Assign rand_sets[229]: 1190  LLC: 2048
rand_sets[229]: 1190
Assign rand_sets[230]: 1191  LLC: 2048
rand_sets[230]: 1191
Assign rand_sets[231]: 645  LLC: 2048
rand_sets[231]: 645
Assign rand_sets[232]: 695  LLC: 2048
rand_sets[232]: 695
Assign rand_sets[233]: 1495  LLC: 2048
rand_sets[233]: 1495
Assign rand_sets[234]: 1932  LLC: 2048
rand_sets[234]: 1932
Assign rand_sets[235]: 656  LLC: 2048
rand_sets[235]: 656
Assign rand_sets[236]: 1508  LLC: 2048
rand_sets[236]: 1508
Assign rand_sets[237]: 939  LLC: 2048
rand_sets[237]: 939
Assign rand_sets[238]: 355  LLC: 2048
rand_sets[238]: 355
Assign rand_sets[239]: 1092  LLC: 2048
rand_sets[239]: 1092
Assign rand_sets[240]: 850  LLC: 2048
rand_sets[240]: 850
Assign rand_sets[241]: 102  LLC: 2048
rand_sets[241]: 102
Assign rand_sets[242]: 1763  LLC: 2048
rand_sets[242]: 1763
Assign rand_sets[243]: 668  LLC: 2048
Assign rand_sets[243]: 51  LLC: 2048
rand_sets[243]: 51
Assign rand_sets[244]: 1317  LLC: 2048
rand_sets[244]: 1317
Assign rand_sets[245]: 2041  LLC: 2048
rand_sets[245]: 2041
Assign rand_sets[246]: 1374  LLC: 2048
rand_sets[246]: 1374
Assign rand_sets[247]: 682  LLC: 2048
rand_sets[247]: 682
Assign rand_sets[248]: 1466  LLC: 2048
rand_sets[248]: 1466
Assign rand_sets[249]: 1139  LLC: 2048
rand_sets[249]: 1139
Assign rand_sets[250]: 1632  LLC: 2048
rand_sets[250]: 1632
Assign rand_sets[251]: 1117  LLC: 2048
rand_sets[251]: 1117
Assign rand_sets[252]: 1611  LLC: 2048
rand_sets[252]: 1611
Assign rand_sets[253]: 1905  LLC: 2048
rand_sets[253]: 1905
Assign rand_sets[254]: 1662  LLC: 2048
Assign rand_sets[254]: 446  LLC: 2048
rand_sets[254]: 446
Assign rand_sets[255]: 1705  LLC: 2048
rand_sets[255]: 1705
Heartbeat CPU 0 instructions: 10000001 cycles: 5015409 heartbeat IPC: 1.99386 cumulative IPC: 1.99386 (Simulation time: 0 hr 0 min 20 sec) 
Heartbeat CPU 0 instructions: 20000002 cycles: 10021533 heartbeat IPC: 1.99755 cumulative IPC: 1.9957 (Simulation time: 0 hr 0 min 41 sec) 
Heartbeat CPU 0 instructions: 30000000 cycles: 15029931 heartbeat IPC: 1.99665 cumulative IPC: 1.99602 (Simulation time: 0 hr 1 min 1 sec) 
Heartbeat CPU 0 instructions: 40000002 cycles: 20052325 heartbeat IPC: 1.99108 cumulative IPC: 1.99478 (Simulation time: 0 hr 1 min 22 sec) 
Heartbeat CPU 0 instructions: 50000000 cycles: 25063248 heartbeat IPC: 1.99564 cumulative IPC: 1.99495 (Simulation time: 0 hr 1 min 42 sec) 
Heartbeat CPU 0 instructions: 60000000 cycles: 30080680 heartbeat IPC: 1.99305 cumulative IPC: 1.99464 (Simulation time: 0 hr 2 min 3 sec) 
Heartbeat CPU 0 instructions: 70000002 cycles: 35085328 heartbeat IPC: 1.99814 cumulative IPC: 1.99514 (Simulation time: 0 hr 2 min 23 sec) 
Heartbeat CPU 0 instructions: 80000000 cycles: 40089621 heartbeat IPC: 1.99828 cumulative IPC: 1.99553 (Simulation time: 0 hr 2 min 43 sec) 
Heartbeat CPU 0 instructions: 90000000 cycles: 45101327 heartbeat IPC: 1.99533 cumulative IPC: 1.99551 (Simulation time: 0 hr 3 min 4 sec) 
Heartbeat CPU 0 instructions: 100000000 cycles: 50082734 heartbeat IPC: 2.00746 cumulative IPC: 1.9967 (Simulation time: 0 hr 3 min 23 sec) 
Heartbeat CPU 0 instructions: 110000000 cycles: 55092152 heartbeat IPC: 1.99624 cumulative IPC: 1.99665 (Simulation time: 0 hr 3 min 43 sec) 
Heartbeat CPU 0 instructions: 120000000 cycles: 60105763 heartbeat IPC: 1.99457 cumulative IPC: 1.99648 (Simulation time: 0 hr 4 min 4 sec) 
Heartbeat CPU 0 instructions: 130000001 cycles: 65078600 heartbeat IPC: 2.01092 cumulative IPC: 1.99758 (Simulation time: 0 hr 4 min 23 sec) 
Heartbeat CPU 0 instructions: 140000002 cycles: 70012698 heartbeat IPC: 2.02671 cumulative IPC: 1.99964 (Simulation time: 0 hr 4 min 44 sec) 
Heartbeat CPU 0 instructions: 150000000 cycles: 74958098 heartbeat IPC: 2.02208 cumulative IPC: 2.00112 (Simulation time: 0 hr 5 min 4 sec) 
Heartbeat CPU 0 instructions: 160000003 cycles: 79921176 heartbeat IPC: 2.01488 cumulative IPC: 2.00197 (Simulation time: 0 hr 5 min 25 sec) 
Heartbeat CPU 0 instructions: 170000000 cycles: 84930716 heartbeat IPC: 1.99619 cumulative IPC: 2.00163 (Simulation time: 0 hr 5 min 45 sec) 
Heartbeat CPU 0 instructions: 180000003 cycles: 89941609 heartbeat IPC: 1.99565 cumulative IPC: 2.0013 (Simulation time: 0 hr 6 min 5 sec) 
Heartbeat CPU 0 instructions: 190000002 cycles: 94815560 heartbeat IPC: 2.05172 cumulative IPC: 2.00389 (Simulation time: 0 hr 6 min 26 sec) 
Heartbeat CPU 0 instructions: 200000001 cycles: 99766783 heartbeat IPC: 2.0197 cumulative IPC: 2.00468 (Simulation time: 0 hr 6 min 46 sec) 

Warmup complete CPU 0 instructions: 200000001 cycles: 99766783 (Simulation time: 0 hr 6 min 46 sec) 

Heartbeat CPU 0 instructions: 210000000 cycles: 119938431 heartbeat IPC: 0.495745 cumulative IPC: 0.495745 (Simulation time: 0 hr 7 min 3 sec) 
Heartbeat CPU 0 instructions: 220000000 cycles: 139482417 heartbeat IPC: 0.511666 cumulative IPC: 0.50358 (Simulation time: 0 hr 7 min 20 sec) 
Heartbeat CPU 0 instructions: 230000002 cycles: 159755949 heartbeat IPC: 0.493254 cumulative IPC: 0.50009 (Simulation time: 0 hr 7 min 36 sec) 
Heartbeat CPU 0 instructions: 240000001 cycles: 179108865 heartbeat IPC: 0.516718 cumulative IPC: 0.504146 (Simulation time: 0 hr 7 min 53 sec) 
Heartbeat CPU 0 instructions: 250000000 cycles: 199373786 heartbeat IPC: 0.493464 cumulative IPC: 0.501973 (Simulation time: 0 hr 8 min 9 sec) 
Heartbeat CPU 0 instructions: 260000000 cycles: 218873053 heartbeat IPC: 0.51284 cumulative IPC: 0.503752 (Simulation time: 0 hr 8 min 26 sec) 
Heartbeat CPU 0 instructions: 270000000 cycles: 239106492 heartbeat IPC: 0.494231 cumulative IPC: 0.502369 (Simulation time: 0 hr 8 min 43 sec) 
Heartbeat CPU 0 instructions: 280000001 cycles: 259511168 heartbeat IPC: 0.490084 cumulative IPC: 0.5008 (Simulation time: 0 hr 8 min 59 sec) 
Heartbeat CPU 0 instructions: 290000002 cycles: 278847853 heartbeat IPC: 0.517152 cumulative IPC: 0.502566 (Simulation time: 0 hr 9 min 16 sec) 
Heartbeat CPU 0 instructions: 300000000 cycles: 299084994 heartbeat IPC: 0.494141 cumulative IPC: 0.50171 (Simulation time: 0 hr 9 min 33 sec) 
Heartbeat CPU 0 instructions: 310000000 cycles: 319613909 heartbeat IPC: 0.487118 cumulative IPC: 0.500348 (Simulation time: 0 hr 9 min 50 sec) 
Heartbeat CPU 0 instructions: 320000001 cycles: 338956675 heartbeat IPC: 0.516989 cumulative IPC: 0.501693 (Simulation time: 0 hr 10 min 6 sec) 
Heartbeat CPU 0 instructions: 330000000 cycles: 359159361 heartbeat IPC: 0.494984 cumulative IPC: 0.501171 (Simulation time: 0 hr 10 min 23 sec) 
Heartbeat CPU 0 instructions: 340000002 cycles: 379704804 heartbeat IPC: 0.486726 cumulative IPC: 0.500111 (Simulation time: 0 hr 10 min 39 sec) 
Heartbeat CPU 0 instructions: 350000000 cycles: 399042083 heartbeat IPC: 0.517136 cumulative IPC: 0.501211 (Simulation time: 0 hr 10 min 55 sec) 
Heartbeat CPU 0 instructions: 360000000 cycles: 419277129 heartbeat IPC: 0.494192 cumulative IPC: 0.500766 (Simulation time: 0 hr 11 min 12 sec) 
Heartbeat CPU 0 instructions: 370000000 cycles: 439843145 heartbeat IPC: 0.486239 cumulative IPC: 0.499888 (Simulation time: 0 hr 11 min 29 sec) 
Heartbeat CPU 0 instructions: 380000000 cycles: 459189296 heartbeat IPC: 0.516899 cumulative IPC: 0.500803 (Simulation time: 0 hr 11 min 45 sec) 
Heartbeat CPU 0 instructions: 390000000 cycles: 479593522 heartbeat IPC: 0.490095 cumulative IPC: 0.500228 (Simulation time: 0 hr 12 min 2 sec) 
Heartbeat CPU 0 instructions: 400000002 cycles: 500128963 heartbeat IPC: 0.486963 cumulative IPC: 0.499548 (Simulation time: 0 hr 12 min 19 sec) 
Heartbeat CPU 0 instructions: 410000002 cycles: 519456020 heartbeat IPC: 0.517409 cumulative IPC: 0.50037 (Simulation time: 0 hr 12 min 35 sec) 
Heartbeat CPU 0 instructions: 420000000 cycles: 541003545 heartbeat IPC: 0.46409 cumulative IPC: 0.498599 (Simulation time: 0 hr 12 min 52 sec) 
Heartbeat CPU 0 instructions: 430000001 cycles: 561547501 heartbeat IPC: 0.486761 cumulative IPC: 0.498072 (Simulation time: 0 hr 13 min 8 sec) 
Heartbeat CPU 0 instructions: 440000000 cycles: 580899823 heartbeat IPC: 0.516734 cumulative IPC: 0.498823 (Simulation time: 0 hr 13 min 25 sec) 
Heartbeat CPU 0 instructions: 450000002 cycles: 601133387 heartbeat IPC: 0.494228 cumulative IPC: 0.498637 (Simulation time: 0 hr 13 min 41 sec) 
Heartbeat CPU 0 instructions: 460000000 cycles: 621657292 heartbeat IPC: 0.487237 cumulative IPC: 0.498189 (Simulation time: 0 hr 13 min 58 sec) 
Heartbeat CPU 0 instructions: 470000000 cycles: 641060184 heartbeat IPC: 0.515387 cumulative IPC: 0.498805 (Simulation time: 0 hr 14 min 14 sec) 
Heartbeat CPU 0 instructions: 480000003 cycles: 661966879 heartbeat IPC: 0.478316 cumulative IPC: 0.498043 (Simulation time: 0 hr 14 min 30 sec) 
Heartbeat CPU 0 instructions: 490000000 cycles: 681342909 heartbeat IPC: 0.516101 cumulative IPC: 0.498645 (Simulation time: 0 hr 14 min 47 sec) 
Heartbeat CPU 0 instructions: 500000003 cycles: 701572906 heartbeat IPC: 0.494316 cumulative IPC: 0.498499 (Simulation time: 0 hr 15 min 3 sec) 
Heartbeat CPU 0 instructions: 510000000 cycles: 722065533 heartbeat IPC: 0.48798 cumulative IPC: 0.498153 (Simulation time: 0 hr 15 min 20 sec) 
Heartbeat CPU 0 instructions: 520000000 cycles: 741482970 heartbeat IPC: 0.515001 cumulative IPC: 0.498663 (Simulation time: 0 hr 15 min 36 sec) 
Heartbeat CPU 0 instructions: 530000000 cycles: 761637620 heartbeat IPC: 0.496163 cumulative IPC: 0.498587 (Simulation time: 0 hr 15 min 53 sec) 
Heartbeat CPU 0 instructions: 540000002 cycles: 781652730 heartbeat IPC: 0.499623 cumulative IPC: 0.498617 (Simulation time: 0 hr 16 min 9 sec) 
Heartbeat CPU 0 instructions: 550000000 cycles: 801467666 heartbeat IPC: 0.50467 cumulative IPC: 0.498788 (Simulation time: 0 hr 16 min 25 sec) 
Heartbeat CPU 0 instructions: 560000003 cycles: 823246284 heartbeat IPC: 0.459166 cumulative IPC: 0.497595 (Simulation time: 0 hr 16 min 42 sec) 
Heartbeat CPU 0 instructions: 570000001 cycles: 843812730 heartbeat IPC: 0.486229 cumulative IPC: 0.497281 (Simulation time: 0 hr 16 min 59 sec) 
Heartbeat CPU 0 instructions: 580000000 cycles: 863856822 heartbeat IPC: 0.4989 cumulative IPC: 0.497324 (Simulation time: 0 hr 17 min 15 sec) 
Heartbeat CPU 0 instructions: 590000000 cycles: 884028131 heartbeat IPC: 0.495754 cumulative IPC: 0.497283 (Simulation time: 0 hr 17 min 32 sec) 
Heartbeat CPU 0 instructions: 600000000 cycles: 903343541 heartbeat IPC: 0.517721 cumulative IPC: 0.497774 (Simulation time: 0 hr 17 min 48 sec) 
Heartbeat CPU 0 instructions: 610000001 cycles: 923720950 heartbeat IPC: 0.49074 cumulative IPC: 0.4976 (Simulation time: 0 hr 18 min 5 sec) 
Heartbeat CPU 0 instructions: 620000001 cycles: 943926438 heartbeat IPC: 0.494915 cumulative IPC: 0.497536 (Simulation time: 0 hr 18 min 21 sec) 
Heartbeat CPU 0 instructions: 630000000 cycles: 963242595 heartbeat IPC: 0.517701 cumulative IPC: 0.497987 (Simulation time: 0 hr 18 min 37 sec) 
Heartbeat CPU 0 instructions: 640000002 cycles: 983498611 heartbeat IPC: 0.493681 cumulative IPC: 0.497889 (Simulation time: 0 hr 18 min 54 sec) 
Heartbeat CPU 0 instructions: 650000001 cycles: 1003956177 heartbeat IPC: 0.488817 cumulative IPC: 0.497683 (Simulation time: 0 hr 19 min 10 sec) 
Heartbeat CPU 0 instructions: 660000000 cycles: 1023330379 heartbeat IPC: 0.51615 cumulative IPC: 0.498071 (Simulation time: 0 hr 19 min 27 sec) 
Heartbeat CPU 0 instructions: 670000001 cycles: 1043636648 heartbeat IPC: 0.492459 cumulative IPC: 0.49795 (Simulation time: 0 hr 19 min 43 sec) 
Heartbeat CPU 0 instructions: 680000000 cycles: 1064091375 heartbeat IPC: 0.488885 cumulative IPC: 0.497758 (Simulation time: 0 hr 20 min 0 sec) 
Heartbeat CPU 0 instructions: 690000000 cycles: 1083455047 heartbeat IPC: 0.516431 cumulative IPC: 0.498125 (Simulation time: 0 hr 20 min 16 sec) 
Heartbeat CPU 0 instructions: 700000003 cycles: 1103658891 heartbeat IPC: 0.494955 cumulative IPC: 0.498061 (Simulation time: 0 hr 20 min 33 sec) 
Finished CPU 0 instructions: 500000002 cycles: 1003892108 cumulative IPC: 0.498062 (Simulation time: 0 hr 20 min 33 sec) 

ChampSim completed all CPUs

Region of Interest Statistics

CPU 0 cumulative IPC: 0.498062 instructions: 500000002 cycles: 1003892108
L1D TOTAL     ACCESS:  151496309  HIT:  143330348  MISS:    8165961
L1D LOAD      ACCESS:  101364908  HIT:   93205515  MISS:    8159393
L1D RFO       ACCESS:   50131401  HIT:   50124833  MISS:       6568
L1D PREFETCH  ACCESS:          0  HIT:          0  MISS:          0
L1D WRITEBACK ACCESS:          0  HIT:          0  MISS:          0
L1D PREFETCH  REQUESTED:          0  ISSUED:          0  USEFUL:          0  USELESS:          0
L1D AVERAGE MISS LATENCY: 63.8903 cycles
L1I TOTAL     ACCESS:   75693323  HIT:   75693323  MISS:          0
L1I LOAD      ACCESS:   75693323  HIT:   75693323  MISS:          0
L1I RFO       ACCESS:          0  HIT:          0  MISS:          0
L1I PREFETCH  ACCESS:          0  HIT:          0  MISS:          0
L1I WRITEBACK ACCESS:          0  HIT:          0  MISS:          0
L1I PREFETCH  REQUESTED:          0  ISSUED:          0  USEFUL:          0  USELESS:          0
L1I AVERAGE MISS LATENCY: -nan cycles
L2C TOTAL     ACCESS:    8256151  HIT:    4178760  MISS:    4077391
L2C LOAD      ACCESS:    8159393  HIT:    4087522  MISS:    4071871
L2C RFO       ACCESS:       6568  HIT:       1072  MISS:       5496
L2C PREFETCH  ACCESS:          0  HIT:          0  MISS:          0
L2C WRITEBACK ACCESS:      90190  HIT:      90166  MISS:         24
L2C PREFETCH  REQUESTED:          0  ISSUED:          0  USEFUL:          0  USELESS:          0
L2C AVERAGE MISS LATENCY: 97.7982 cycles
LLC TOTAL     ACCESS:    4123518  HIT:     544915  MISS:    3578603
LLC LOAD      ACCESS:    4071871  HIT:     526466  MISS:    3545405
LLC RFO       ACCESS:       5496  HIT:        550  MISS:       4946
LLC PREFETCH  ACCESS:          0  HIT:          0  MISS:          0
LLC WRITEBACK ACCESS:      46151  HIT:      17899  MISS:      28252
LLC PREFETCH  REQUESTED:          0  ISSUED:          0  USEFUL:          0  USELESS:          0
LLC AVERAGE MISS LATENCY: 77.1818 cycles
Major fault: 0 Minor fault: 11337

DRAM Statistics
 CHANNEL 0
 RQ ROW_BUFFER_HIT:    3312518  ROW_BUFFER_MISS:     237833
 DBUS_CONGESTED:       8555
 WQ ROW_BUFFER_HIT:       8640  ROW_BUFFER_MISS:      18624  FULL:          0

 AVG_CONGESTED_CYCLE: 6

CPU 0 Branch Prediction Accuracy: 94.726% MPKI: 12.5116 Average ROB Occupancy at Mispredict: 54.3231

Branch types
NOT_BRANCH: 381384142 76.2768%
BRANCH_DIRECT_JUMP: 12478689 2.49574%
BRANCH_INDIRECT: 0 0%
BRANCH_CONDITIONAL: 93606945 18.7214%
BRANCH_DIRECT_CALL: 6264877 1.25298%
BRANCH_INDIRECT_CALL: 54 1.08e-05%
BRANCH_RETURN: 6264931 1.25299%
BRANCH_OTHER: 0 0%

